@<TRIPOS>MOLECULE
structure_1408.xyz
 6 5 0 0 0
SMALL
GASTEIGER

@<TRIPOS>ATOM
      1 H           4.7185    5.4321    6.0121 H       1  UNL1        0.0521
      2 H           4.4229    6.6190    7.2992 H       1  UNL1        0.0521
      3 H           3.0457    5.7444    6.5631 H       1  UNL1        0.0521
      4 H           3.9409    8.1188    5.8338 H       1  UNL1        0.2090
      5 C           4.0237    6.2079    6.3617 C.3     1  UNL1        0.0330
      6 O           3.9063    7.2309    5.3583 O.3     1  UNL1       -0.3982
@<TRIPOS>BOND
     1     6     4    1
     2     6     5    1
     3     1     5    1
     4     5     3    1
     5     5     2    1
