@<TRIPOS>MOLECULE
structure_2103.xyz
 6 5 0 0 0
SMALL
GASTEIGER

@<TRIPOS>ATOM
      1 H           2.2754    1.9071    3.3843 H       1  UNL1        0.0521
      2 H           2.7946    0.3856    4.1878 H       1  UNL1        0.0521
      3 H           3.7590    1.0507    2.8478 H       1  UNL1        0.0521
      4 H           3.9347    1.6007    5.5391 H       1  UNL1        0.2090
      5 C           3.1437    1.3162    3.7209 C.3     1  UNL1        0.0330
      6 O           3.9207    2.0796    4.6524 O.3     1  UNL1       -0.3982
@<TRIPOS>BOND
     1     3     5    1
     2     1     5    1
     3     5     2    1
     4     5     6    1
     5     6     4    1
