@<TRIPOS>MOLECULE
structure_236.xyz
 6 5 0 0 0
SMALL
GASTEIGER

@<TRIPOS>ATOM
      1 H           8.4073   -0.2153    4.7555 H       1  UNL1        0.2090
      2 H           6.6069    0.3756    3.2738 H       1  UNL1        0.0521
      3 H           8.2149    0.5906    2.5289 H       1  UNL1        0.0521
      4 H           7.3565    1.9988    3.2109 H       1  UNL1        0.0521
      5 C           7.5569    0.9287    3.3440 C.3     1  UNL1        0.0330
      6 O           8.1601    0.7524    4.6342 O.3     1  UNL1       -0.3982
@<TRIPOS>BOND
     1     3     5    1
     2     4     5    1
     3     2     5    1
     4     5     6    1
     5     6     1    1
