@<TRIPOS>MOLECULE
structure_877.xyz
 6 5 0 0 0
SMALL
GASTEIGER

@<TRIPOS>ATOM
      1 H           6.9501    2.1422    2.0118 H       1  UNL1        0.0521
      2 H           5.8799    1.2964    3.1648 H       1  UNL1        0.0521
      3 H           5.5812    1.1513    1.4101 H       1  UNL1        0.0521
      4 H           5.0845    3.4907    1.4619 H       1  UNL1        0.2090
      5 C           5.9065    1.8394    2.2098 C.3     1  UNL1        0.0330
      6 O           5.0322    2.9556    2.3136 O.3     1  UNL1       -0.3982
@<TRIPOS>BOND
     1     3     5    1
     2     4     6    1
     3     1     5    1
     4     5     6    1
     5     5     2    1
