@<TRIPOS>MOLECULE
structure_2120.xyz
 6 5 0 0 0
SMALL
GASTEIGER

@<TRIPOS>ATOM
      1 H           4.8880   11.0450    4.4373 H       1  UNL1        0.0521
      2 H           3.1058   10.9085    4.2459 H       1  UNL1        0.0521
      3 H           4.1623   10.9007    2.8042 H       1  UNL1        0.0521
      4 H           3.5767   13.1324    4.5316 H       1  UNL1        0.2090
      5 C           4.0270   11.3174    3.8086 C.3     1  UNL1        0.0330
      6 O           3.9174   12.7455    3.6724 O.3     1  UNL1       -0.3982
@<TRIPOS>BOND
     1     3     5    1
     2     6     5    1
     3     6     4    1
     4     5     2    1
     5     5     1    1
