@<TRIPOS>MOLECULE
structure_2338.xyz
 6 5 0 0 0
SMALL
GASTEIGER

@<TRIPOS>ATOM
      1 H           0.0311   11.4117    1.5823 H       1  UNL1        0.0521
      2 H           1.0709    9.0777    1.4166 H       1  UNL1        0.2090
      3 H          -0.9674    9.9612    1.2791 H       1  UNL1        0.0521
      4 H          -0.8249   10.6083    2.9337 H       1  UNL1        0.0521
      5 C          -0.2860   10.4409    1.9939 C.3     1  UNL1        0.0330
      6 O           0.8705    9.6095    2.2530 O.3     1  UNL1       -0.3982
@<TRIPOS>BOND
     1     3     5    1
     2     2     6    1
     3     1     5    1
     4     5     6    1
     5     5     4    1
