@<TRIPOS>MOLECULE
structure_1207.xyz
 6 5 0 0 0
SMALL
GASTEIGER

@<TRIPOS>ATOM
      1 H          14.7380    0.2731    4.4908 H       1  UNL1        0.0521
      2 H          13.8095    1.4039    5.5130 H       1  UNL1        0.0521
      3 H          13.9482    1.7101    3.7637 H       1  UNL1        0.0521
      4 H          12.6180   -0.2105    3.4269 H       1  UNL1        0.2090
      5 C          13.8473    0.9228    4.5279 C.3     1  UNL1        0.0330
      6 O          12.6487    0.1671    4.3620 O.3     1  UNL1       -0.3982
@<TRIPOS>BOND
     1     4     6    1
     2     3     5    1
     3     6     5    1
     4     1     5    1
     5     5     2    1
