@<TRIPOS>MOLECULE
structure_948.xyz
 6 5 0 0 0
SMALL
GASTEIGER

@<TRIPOS>ATOM
      1 H           5.0289    4.8068    0.2144 H       1  UNL1        0.0521
      2 H           4.6024    5.2584    3.0442 H       1  UNL1        0.2090
      3 H           3.7507    3.9778    1.1538 H       1  UNL1        0.0521
      4 H           3.6905    5.7494    0.9267 H       1  UNL1        0.0521
      5 C           4.3624    4.8919    1.0830 C.3     1  UNL1        0.0330
      6 O           5.1790    5.0756    2.2405 O.3     1  UNL1       -0.3982
@<TRIPOS>BOND
     1     1     5    1
     2     4     5    1
     3     5     3    1
     4     5     6    1
     5     6     2    1
