@<TRIPOS>MOLECULE
structure_217.xyz
 6 5 0 0 0
SMALL
GASTEIGER

@<TRIPOS>ATOM
      1 H           6.0437    8.8637    1.9658 H       1  UNL1        0.0521
      2 H           4.4328    8.4965    2.6596 H       1  UNL1        0.0521
      3 H           4.6608    8.5141    0.8895 H       1  UNL1        0.0521
      4 H           4.8731   10.8205    2.6112 H       1  UNL1        0.2090
      5 C           4.9569    9.0006    1.8293 C.3     1  UNL1        0.0330
      6 O           4.5931   10.3716    1.7498 O.3     1  UNL1       -0.3982
@<TRIPOS>BOND
     1     3     5    1
     2     6     5    1
     3     6     4    1
     4     5     1    1
     5     5     2    1
