@<TRIPOS>MOLECULE
structure_178.xyz
 6 5 0 0 0
SMALL
GASTEIGER

@<TRIPOS>ATOM
      1 H           2.3269    2.0565    5.7785 H       1  UNL1        0.0521
      2 H           2.3269    2.0565    3.9844 H       1  UNL1        0.0521
      3 H           0.1243    1.8604    4.8814 H       1  UNL1        0.2090
      4 H           2.4378    3.5939    4.8814 H       1  UNL1        0.0521
      5 C           1.9755    2.5977    4.8814 C.3     1  UNL1        0.0330
      6 O           0.5703    2.7616    4.8814 O.3     1  UNL1       -0.3982
@<TRIPOS>BOND
     1     2     5    1
     2     3     6    1
     3     4     5    1
     4     5     6    1
     5     5     1    1
