@<TRIPOS>MOLECULE
structure_918.xyz
 6 5 0 0 0
SMALL
GASTEIGER

@<TRIPOS>ATOM
      1 H           0.1447    0.1453    0.2940 H       1  UNL1        0.2090
      2 H           1.7883    1.4833    1.4245 H       1  UNL1        0.0521
      3 H           2.4743    0.0495    0.5956 H       1  UNL1        0.0521
      4 H           2.1717    0.0051    2.3540 H       1  UNL1        0.0521
      5 C           1.7949    0.3827    1.3950 C.3     1  UNL1        0.0330
      6 O           0.4652   -0.1292    1.2142 O.3     1  UNL1       -0.3982
@<TRIPOS>BOND
     1     1     6    1
     2     3     5    1
     3     6     5    1
     4     5     2    1
     5     5     4    1
