@<TRIPOS>MOLECULE
structure_2407.xyz
 6 5 0 0 0
SMALL
GASTEIGER

@<TRIPOS>ATOM
      1 H           4.1856    3.9130   14.4489 H       1  UNL1        0.0521
      2 H           2.4520    4.2665   16.7300 H       1  UNL1        0.2090
      3 H           2.4632    3.4521   14.4307 H       1  UNL1        0.0521
      4 H           2.9315    5.1695   14.6482 H       1  UNL1        0.0521
      5 C           3.2039    4.1283   14.8931 C.3     1  UNL1        0.0330
      6 O           3.2959    3.9126   16.2968 O.3     1  UNL1       -0.3982
@<TRIPOS>BOND
     1     3     5    1
     2     1     5    1
     3     4     5    1
     4     5     6    1
     5     6     2    1
