@<TRIPOS>MOLECULE
structure_913.xyz
 6 5 0 0 0
SMALL
GASTEIGER

@<TRIPOS>ATOM
      1 H           1.3466    1.7339   -0.0584 H       1  UNL1        0.0521
      2 H           3.1275    1.8101   -0.0526 H       1  UNL1        0.0521
      3 H           2.2691    0.8541    1.2025 H       1  UNL1        0.0521
      4 H           2.9974    3.0852    1.8971 H       1  UNL1        0.2090
      5 C           2.2330    1.7680    0.5873 C.3     1  UNL1        0.0330
      6 O           2.1336    2.9463    1.3944 O.3     1  UNL1       -0.3982
@<TRIPOS>BOND
     1     1     5    1
     2     2     5    1
     3     5     3    1
     4     5     6    1
     5     6     4    1
