@<TRIPOS>MOLECULE
structure_955.xyz
 6 5 0 0 0
SMALL
GASTEIGER

@<TRIPOS>ATOM
      1 H           2.5515    3.1830    9.8041 H       1  UNL1        0.2090
      2 H           4.5459    2.3597    7.9234 H       1  UNL1        0.0521
      3 H           3.0797    3.1732    7.3025 H       1  UNL1        0.0521
      4 H           4.1423    4.0071    8.4844 H       1  UNL1        0.0521
      5 C           3.7211    3.0349    8.1894 C.3     1  UNL1        0.0330
      6 O           2.9764    2.4424    9.2615 O.3     1  UNL1       -0.3982
@<TRIPOS>BOND
     1     3     5    1
     2     2     5    1
     3     5     4    1
     4     5     6    1
     5     6     1    1
