@<TRIPOS>MOLECULE
structure_985.xyz
 6 5 0 0 0
SMALL
GASTEIGER

@<TRIPOS>ATOM
      1 H           0.5690    2.0627    3.7565 H       1  UNL1        0.0521
      2 H           0.8070    0.8800    2.4347 H       1  UNL1        0.0521
      3 H           0.8573    2.6200    2.0727 H       1  UNL1        0.0521
      4 H           2.8028    2.6861    3.5206 H       1  UNL1        0.2090
      5 C           1.1093    1.8578    2.8221 C.3     1  UNL1        0.0330
      6 O           2.5343    1.8276    3.0583 O.3     1  UNL1       -0.3982
@<TRIPOS>BOND
     1     3     5    1
     2     2     5    1
     3     5     6    1
     4     5     1    1
     5     6     4    1
