@<TRIPOS>MOLECULE
structure_719.xyz
 6 5 0 0 0
SMALL
GASTEIGER

@<TRIPOS>ATOM
      1 H           5.0218    2.1054   -0.5284 H       1  UNL1        0.0521
      2 H           4.7824    4.4282   -0.4310 H       1  UNL1        0.2090
      3 H           5.4639    2.1343    1.1979 H       1  UNL1        0.0521
      4 H           3.7899    2.5208    0.7021 H       1  UNL1        0.0521
      5 C           4.8541    2.6234    0.4281 C.3     1  UNL1        0.0330
      6 O           5.2490    3.9970    0.3482 O.3     1  UNL1       -0.3982
@<TRIPOS>BOND
     1     1     5    1
     2     2     6    1
     3     6     5    1
     4     5     4    1
     5     5     3    1
