@<TRIPOS>MOLECULE
structure_304.xyz
 6 5 0 0 0
SMALL
GASTEIGER

@<TRIPOS>ATOM
      1 H           1.2358   -0.2931    5.7876 H       1  UNL1        0.0521
      2 H           1.2358   -0.2931    3.9937 H       1  UNL1        0.0521
      3 H           1.1232    1.2444    4.8906 H       1  UNL1        0.0521
      4 H           3.4381   -0.4870    4.8906 H       1  UNL1        0.2090
      5 C           1.5867    0.2486    4.8906 C.3     1  UNL1        0.0330
      6 O           2.9918    0.4139    4.8906 O.3     1  UNL1       -0.3982
@<TRIPOS>BOND
     1     2     5    1
     2     3     5    1
     3     4     6    1
     4     5     6    1
     5     5     1    1
