@<TRIPOS>MOLECULE
structure_844.xyz
 6 5 0 0 0
SMALL
GASTEIGER

@<TRIPOS>ATOM
      1 H           3.9233   14.1502    1.2577 H       1  UNL1        0.0521
      2 H           3.5470   13.0019   -0.0662 H       1  UNL1        0.0521
      3 H           3.5315   11.5988    1.6332 H       1  UNL1        0.2090
      4 H           5.2441   13.4322    0.2807 H       1  UNL1        0.0521
      5 C           4.2624   13.2400    0.7344 C.3     1  UNL1        0.0330
      6 O           4.3834   12.1491    1.6553 O.3     1  UNL1       -0.3982
@<TRIPOS>BOND
     1     2     5    1
     2     4     5    1
     3     5     1    1
     4     5     6    1
     5     3     6    1
