@<TRIPOS>MOLECULE
structure_468.xyz
 6 5 0 0 0
SMALL
GASTEIGER

@<TRIPOS>ATOM
      1 H           7.5179    8.0279    0.5063 H       1  UNL1        0.0521
      2 H           5.4158    7.0587    1.0458 H       1  UNL1        0.2090
      3 H           6.6221    9.0883   -0.6162 H       1  UNL1        0.0521
      4 H           6.3595    9.2335    1.1435 H       1  UNL1        0.0521
      5 C           6.5471    8.5217    0.3219 C.3     1  UNL1        0.0330
      6 O           5.4816    7.5871    0.1895 O.3     1  UNL1       -0.3982
@<TRIPOS>BOND
     1     3     5    1
     2     6     5    1
     3     6     2    1
     4     5     1    1
     5     5     4    1
