@<TRIPOS>MOLECULE
structure_914.xyz
 6 5 0 0 0
SMALL
GASTEIGER

@<TRIPOS>ATOM
      1 H           0.5862    1.6985    0.6257 H       1  UNL1        0.0521
      2 H           0.9277    3.8027    1.7571 H       1  UNL1        0.2090
      3 H           1.7136    1.6398    2.0173 H       1  UNL1        0.0521
      4 H           2.3526    1.7586    0.3613 H       1  UNL1        0.0521
      5 C           1.5411    2.0847    1.0224 C.3     1  UNL1        0.0330
      6 O           1.5654    3.5147    1.0648 O.3     1  UNL1       -0.3982
@<TRIPOS>BOND
     1     4     5    1
     2     1     5    1
     3     5     6    1
     4     5     3    1
     5     6     2    1
