@<TRIPOS>MOLECULE
structure_128.xyz
 6 5 0 0 0
SMALL
GASTEIGER

@<TRIPOS>ATOM
      1 H           3.6165   12.0799    2.6114 H       1  UNL1        0.0521
      2 H           1.7730   13.4293    3.4245 H       1  UNL1        0.2090
      3 H           2.3575   11.1077    1.7976 H       1  UNL1        0.0521
      4 H           2.4079   11.1823    3.5807 H       1  UNL1        0.0521
      5 C           2.5642   11.7613    2.6555 C.3     1  UNL1        0.0330
      6 O           1.6648   12.8703    2.5884 O.3     1  UNL1       -0.3982
@<TRIPOS>BOND
     1     3     5    1
     2     6     5    1
     3     6     2    1
     4     1     5    1
     5     5     4    1
