@<TRIPOS>MOLECULE
structure_1481.xyz
 6 5 0 0 0
SMALL
GASTEIGER

@<TRIPOS>ATOM
      1 H           1.4781    6.5658    0.5691 H       1  UNL1        0.2090
      2 H           1.6314    3.6832    0.7568 H       1  UNL1        0.0521
      3 H           1.0976    4.7910    2.0486 H       1  UNL1        0.0521
      4 H           2.8042    4.8055    1.5112 H       1  UNL1        0.0521
      5 C           1.7606    4.6885    1.1758 C.3     1  UNL1        0.0330
      6 O           1.4140    5.6449    0.1580 O.3     1  UNL1       -0.3982
@<TRIPOS>BOND
     1     6     1    1
     2     6     5    1
     3     2     5    1
     4     5     4    1
     5     5     3    1
