@<TRIPOS>MOLECULE
structure_1502.xyz
 6 5 0 0 0
SMALL
GASTEIGER

@<TRIPOS>ATOM
      1 H           1.5077    0.0752   -0.5243 H       1  UNL1        0.2090
      2 H           3.1061    1.5148    0.3917 H       1  UNL1        0.0521
      3 H           3.7327    0.1230    1.3293 H       1  UNL1        0.0521
      4 H           3.9216    0.1526   -0.4421 H       1  UNL1        0.0521
      5 C           3.2509    0.4207    0.3890 C.3     1  UNL1        0.0330
      6 O           2.0004   -0.2722    0.2863 O.3     1  UNL1       -0.3982
@<TRIPOS>BOND
     1     1     6    1
     2     4     5    1
     3     6     5    1
     4     5     2    1
     5     5     3    1
