@<TRIPOS>MOLECULE
structure_138.xyz
 6 5 0 0 0
SMALL
GASTEIGER

@<TRIPOS>ATOM
      1 H           3.9885    8.8310    1.6780 H       1  UNL1        0.2090
      2 H           6.3626   10.2441    2.2239 H       1  UNL1        0.0521
      3 H           4.9375   11.2968    1.9848 H       1  UNL1        0.0521
      4 H           4.9139   10.0244    3.2406 H       1  UNL1        0.0521
      5 C           5.2637   10.2753    2.2292 C.3     1  UNL1        0.0330
      6 O           4.7570    9.3425    1.2608 O.3     1  UNL1       -0.3982
@<TRIPOS>BOND
     1     6     1    1
     2     6     5    1
     3     3     5    1
     4     2     5    1
     5     5     4    1
