@<TRIPOS>MOLECULE
structure_942.xyz
 6 5 0 0 0
SMALL
GASTEIGER

@<TRIPOS>ATOM
      1 H           0.7024    2.6433    3.5253 H       1  UNL1        0.2090
      2 H           1.3935    3.0629    1.1264 H       1  UNL1        0.0521
      3 H           2.7517    1.9975    1.6040 H       1  UNL1        0.0521
      4 H           2.4882    3.5520    2.4539 H       1  UNL1        0.0521
      5 C           1.9903    2.6948    1.9780 C.3     1  UNL1        0.0330
      6 O           1.1766    1.9835    2.9243 O.3     1  UNL1       -0.3982
@<TRIPOS>BOND
     1     2     5    1
     2     3     5    1
     3     5     4    1
     4     5     6    1
     5     6     1    1
