@<TRIPOS>MOLECULE
structure_175.xyz
 6 5 0 0 0
SMALL
GASTEIGER

@<TRIPOS>ATOM
      1 H           6.8303    1.6624    4.2788 H       1  UNL1        0.0521
      2 H           6.8303    1.6624    2.4809 H       1  UNL1        0.0521
      3 H           7.7051    2.9255    3.3798 H       1  UNL1        0.0521
      4 H           4.8242    2.6468    3.3798 H       1  UNL1        0.2090
      5 C           6.8059    2.2984    3.3798 C.3     1  UNL1        0.0330
      6 O           5.6708    3.1695    3.3798 O.3     1  UNL1       -0.3982
@<TRIPOS>BOND
     1     2     5    1
     2     3     5    1
     3     4     6    1
     4     5     6    1
     5     5     1    1
