@<TRIPOS>MOLECULE
structure_638.xyz
 6 5 0 0 0
SMALL
GASTEIGER

@<TRIPOS>ATOM
      1 H           5.2939   10.9567    0.7252 H       1  UNL1        0.0521
      2 H           6.1652    9.6847    2.2727 H       1  UNL1        0.2090
      3 H           6.9174   11.2857    0.0628 H       1  UNL1        0.0521
      4 H           6.3386   12.1988    1.4882 H       1  UNL1        0.0521
      5 C           6.3296   11.2169    0.9890 C.3     1  UNL1        0.0330
      6 O           6.9106   10.2174    1.8398 O.3     1  UNL1       -0.3982
@<TRIPOS>BOND
     1     3     5    1
     2     1     5    1
     3     5     4    1
     4     5     6    1
     5     6     2    1
