@<TRIPOS>MOLECULE
structure_931.xyz
 6 5 0 0 0
SMALL
GASTEIGER

@<TRIPOS>ATOM
      1 H           0.0341    1.9291    1.3127 H       1  UNL1        0.2090
      2 H           1.2842    4.5086    1.7432 H       1  UNL1        0.0521
      3 H           2.1617    2.9882    1.4019 H       1  UNL1        0.0521
      4 H           1.2694    3.1891    2.9430 H       1  UNL1        0.0521
      5 C           1.2596    3.4182    1.8668 C.3     1  UNL1        0.0330
      6 O           0.0553    2.9398    1.2452 O.3     1  UNL1       -0.3982
@<TRIPOS>BOND
     1     6     1    1
     2     6     5    1
     3     3     5    1
     4     2     5    1
     5     5     4    1
