@<TRIPOS>MOLECULE
structure_929.xyz
 6 5 0 0 0
SMALL
GASTEIGER

@<TRIPOS>ATOM
      1 H           0.1862    0.3260    5.0341 H       1  UNL1        0.0521
      2 H           1.5409   -0.5479    5.8485 H       1  UNL1        0.0521
      3 H           1.5158    1.2304    5.8290 H       1  UNL1        0.0521
      4 H           1.8930   -0.4794    3.5314 H       1  UNL1        0.2090
      5 C           1.2648    0.3330    5.2500 C.3     1  UNL1        0.0330
      6 O           2.0485    0.3785    4.0331 O.3     1  UNL1       -0.3982
@<TRIPOS>BOND
     1     4     6    1
     2     6     5    1
     3     1     5    1
     4     5     3    1
     5     5     2    1
