@<TRIPOS>MOLECULE
structure_528.xyz
 6 5 0 0 0
SMALL
GASTEIGER

@<TRIPOS>ATOM
      1 H          10.3913    8.6730    1.8585 H       1  UNL1        0.0521
      2 H           9.1963    7.4218    2.3096 H       1  UNL1        0.0521
      3 H           9.8501    7.4642    0.6532 H       1  UNL1        0.0521
      4 H           8.7009    9.4688    0.3312 H       1  UNL1        0.2090
      5 C           9.5282    8.0868    1.5023 C.3     1  UNL1        0.0330
      6 O           8.4278    8.9332    1.1398 O.3     1  UNL1       -0.3982
@<TRIPOS>BOND
     1     4     6    1
     2     3     5    1
     3     6     5    1
     4     5     1    1
     5     5     2    1
