@<TRIPOS>MOLECULE
structure_131.xyz
 6 5 0 0 0
SMALL
GASTEIGER

@<TRIPOS>ATOM
      1 H           8.4429    0.1165    3.0467 H       1  UNL1        0.0521
      2 H           6.2297    0.5408    1.2704 H       1  UNL1        0.2090
      3 H           8.5474    1.0455    1.5253 H       1  UNL1        0.0521
      4 H           7.5438    1.6505    2.8841 H       1  UNL1        0.0521
      5 C           7.8790    0.7491    2.3498 C.3     1  UNL1        0.0330
      6 O           6.7740   -0.0218    1.8765 O.3     1  UNL1       -0.3982
@<TRIPOS>BOND
     1     2     6    1
     2     3     5    1
     3     6     5    1
     4     5     4    1
     5     5     1    1
