@<TRIPOS>MOLECULE
structure_1521.xyz
 6 5 0 0 0
SMALL
GASTEIGER

@<TRIPOS>ATOM
      1 H          -1.5496    0.9513    3.4797 H       1  UNL1        0.2090
      2 H          -0.6170    2.4314    4.8333 H       1  UNL1        0.0521
      3 H          -0.8464    1.0927    6.0064 H       1  UNL1        0.0521
      4 H           0.7211    1.2973    5.1667 H       1  UNL1        0.0521
      5 C          -0.3692    1.3829    5.0558 C.3     1  UNL1        0.0330
      6 O          -0.7943    0.5157    3.9960 O.3     1  UNL1       -0.3982
@<TRIPOS>BOND
     1     1     6    1
     2     6     5    1
     3     2     5    1
     4     5     4    1
     5     5     3    1
