@<TRIPOS>MOLECULE
structure_111.xyz
 6 5 0 0 0
SMALL
GASTEIGER

@<TRIPOS>ATOM
      1 H           4.5698    0.8032    5.4094 H       1  UNL1        0.0521
      2 H           3.1965    0.9818    4.2684 H       1  UNL1        0.0521
      3 H           4.0474    2.4291    4.8836 H       1  UNL1        0.0521
      4 H           2.8198    0.6733    6.7832 H       1  UNL1        0.2090
      5 C           3.6991    1.4215    5.1473 C.3     1  UNL1        0.0330
      6 O           2.7875    1.5305    6.2471 O.3     1  UNL1       -0.3982
@<TRIPOS>BOND
     1     2     5    1
     2     3     5    1
     3     5     1    1
     4     5     6    1
     5     6     4    1
