@<TRIPOS>MOLECULE
structure_661.xyz
 6 5 0 0 0
SMALL
GASTEIGER

@<TRIPOS>ATOM
      1 H           1.7419    8.0473    4.1323 H       1  UNL1        0.0521
      2 H           2.3545    7.6739    2.4990 H       1  UNL1        0.0521
      3 H           0.9381    6.7877    3.1413 H       1  UNL1        0.0521
      4 H           0.1582    9.2921    3.2747 H       1  UNL1        0.2090
      5 C           1.4464    7.7650    3.1112 C.3     1  UNL1        0.0330
      6 O           0.5877    8.7570    2.5292 O.3     1  UNL1       -0.3982
@<TRIPOS>BOND
     1     2     5    1
     2     6     5    1
     3     6     4    1
     4     5     3    1
     5     5     1    1
