@<TRIPOS>MOLECULE
structure_490.xyz
 6 5 0 0 0
SMALL
GASTEIGER

@<TRIPOS>ATOM
      1 H           3.9267   14.1614    2.8491 H       1  UNL1        0.0521
      2 H           3.5548   13.0125    1.5242 H       1  UNL1        0.0521
      3 H           3.5386   11.6104    3.2258 H       1  UNL1        0.2090
      4 H           5.2507   13.4449    1.8750 H       1  UNL1        0.0521
      5 C           4.2681   13.2514    2.3266 C.3     1  UNL1        0.0330
      6 O           4.3896   12.1608    3.2473 O.3     1  UNL1       -0.3982
@<TRIPOS>BOND
     1     2     5    1
     2     4     5    1
     3     5     1    1
     4     5     6    1
     5     3     6    1
