@<TRIPOS>MOLECULE
structure_2119.xyz
 6 5 0 0 0
SMALL
GASTEIGER

@<TRIPOS>ATOM
      1 H           5.7657    6.8889    2.1512 H       1  UNL1        0.0521
      2 H           4.1022    7.8982    1.1222 H       1  UNL1        0.2090
      3 H           4.6431    5.5063    2.0014 H       1  UNL1        0.0521
      4 H           4.6925    6.4595    3.5141 H       1  UNL1        0.0521
      5 C           4.7692    6.5152    2.4217 C.3     1  UNL1        0.0330
      6 O           3.7332    7.3945    1.9173 O.3     1  UNL1       -0.3982
@<TRIPOS>BOND
     1     2     6    1
     2     6     5    1
     3     3     5    1
     4     1     5    1
     5     5     4    1
