@<TRIPOS>MOLECULE
structure_1636.xyz
 6 5 0 0 0
SMALL
GASTEIGER

@<TRIPOS>ATOM
      1 H          13.5674    4.9370    1.1121 H       1  UNL1        0.2090
      2 H          12.6722    2.7831    0.6543 H       1  UNL1        0.0521
      3 H          11.7481    3.6468    1.9276 H       1  UNL1        0.0521
      4 H          11.1414    3.6087    0.2481 H       1  UNL1        0.0521
      5 C          12.0443    3.6639    0.8683 C.3     1  UNL1        0.0330
      6 O          12.7254    4.8912    0.5563 O.3     1  UNL1       -0.3982
@<TRIPOS>BOND
     1     4     5    1
     2     6     5    1
     3     6     1    1
     4     2     5    1
     5     5     3    1
