@<TRIPOS>MOLECULE
structure_117.xyz
 6 5 0 0 0
SMALL
GASTEIGER

@<TRIPOS>ATOM
      1 H           3.7019   11.9440    3.9355 H       1  UNL1        0.0521
      2 H           5.5210   13.2612    4.0797 H       1  UNL1        0.2090
      3 H           5.0730   10.7885    3.9311 H       1  UNL1        0.0521
      4 H           4.3083   11.2777    2.3913 H       1  UNL1        0.0521
      5 C           4.6032   11.6272    3.3902 C.3     1  UNL1        0.0330
      6 O           5.5292   12.7091    3.2330 O.3     1  UNL1       -0.3982
@<TRIPOS>BOND
     1     4     5    1
     2     6     5    1
     3     6     2    1
     4     5     3    1
     5     5     1    1
