@<TRIPOS>MOLECULE
structure_112.xyz
 6 5 0 0 0
SMALL
GASTEIGER

@<TRIPOS>ATOM
      1 H           6.0340    9.6629    2.4385 H       1  UNL1        0.0521
      2 H           7.3722    8.9530    1.4987 H       1  UNL1        0.0521
      3 H           8.4196    8.4756    3.5671 H       1  UNL1        0.2090
      4 H           6.3252    7.9031    2.5069 H       1  UNL1        0.0521
      5 C           6.8113    8.8879    2.4447 C.3     1  UNL1        0.0330
      6 O           7.6484    9.1238    3.5890 O.3     1  UNL1       -0.3982
@<TRIPOS>BOND
     1     2     5    1
     2     1     5    1
     3     5     4    1
     4     5     6    1
     5     3     6    1
