@<TRIPOS>MOLECULE
structure_1611.xyz
 6 5 0 0 0
SMALL
GASTEIGER

@<TRIPOS>ATOM
      1 H          11.2109    4.2793    4.6926 H       1  UNL1        0.0521
      2 H          10.3526    5.2906    3.4890 H       1  UNL1        0.0521
      3 H          10.2143    3.5158    3.4055 H       1  UNL1        0.0521
      4 H           8.9767    3.5999    5.3938 H       1  UNL1        0.2090
      5 C          10.2931    4.3742    4.0894 C.3     1  UNL1        0.0330
      6 O           9.1227    4.4711    4.9080 O.3     1  UNL1       -0.3982
@<TRIPOS>BOND
     1     3     5    1
     2     2     5    1
     3     5     1    1
     4     5     6    1
     5     6     4    1
