@<TRIPOS>MOLECULE
structure_191.xyz
 6 5 0 0 0
SMALL
GASTEIGER

@<TRIPOS>ATOM
      1 H           8.7793    9.8091    1.0715 H       1  UNL1        0.0521
      2 H           7.8077    9.2391    2.4653 H       1  UNL1        0.0521
      3 H           6.0074    8.9982    0.9243 H       1  UNL1        0.2090
      4 H           8.2207    8.1188    1.1208 H       1  UNL1        0.0521
      5 C           7.9509    9.1557    1.3761 C.3     1  UNL1        0.0330
      6 O           6.7845    9.5821    0.6621 O.3     1  UNL1       -0.3982
@<TRIPOS>BOND
     1     6     3    1
     2     6     5    1
     3     1     5    1
     4     4     5    1
     5     5     2    1
