@<TRIPOS>MOLECULE
structure_1454.xyz
 6 5 0 0 0
SMALL
GASTEIGER

@<TRIPOS>ATOM
      1 H           0.5622    3.1357    1.1628 H       1  UNL1        0.0521
      2 H           0.6001    2.8077    2.9197 H       1  UNL1        0.0521
      3 H           0.6771    1.4513    1.7759 H       1  UNL1        0.0521
      4 H           2.8008    2.2188    1.1432 H       1  UNL1        0.2090
      5 C           0.9950    2.4928    1.9456 C.3     1  UNL1        0.0330
      6 O           2.4226    2.6046    1.9932 O.3     1  UNL1       -0.3982
@<TRIPOS>BOND
     1     4     6    1
     2     1     5    1
     3     3     5    1
     4     5     6    1
     5     5     2    1
