@<TRIPOS>MOLECULE
structure_1567.xyz
 6 5 0 0 0
SMALL
GASTEIGER

@<TRIPOS>ATOM
      1 H           8.6763    4.7456    0.8995 H       1  UNL1        0.2090
      2 H           8.7396    2.5239    0.0806 H       1  UNL1        0.0521
      3 H           7.3639    2.7647    1.2000 H       1  UNL1        0.0521
      4 H           7.1022    2.8069   -0.5605 H       1  UNL1        0.0521
      5 C           7.8007    3.0775    0.2392 C.3     1  UNL1        0.0330
      6 O           8.0013    4.4980    0.1927 O.3     1  UNL1       -0.3982
@<TRIPOS>BOND
     1     4     5    1
     2     2     5    1
     3     6     5    1
     4     6     1    1
     5     5     3    1
