@<TRIPOS>MOLECULE
structure_666.xyz
 6 5 0 0 0
SMALL
GASTEIGER

@<TRIPOS>ATOM
      1 H           6.1755    4.3848   13.5807 H       1  UNL1        0.0521
      2 H           7.9699    4.3848   13.5807 H       1  UNL1        0.0521
      3 H           7.0727    4.4404   11.3751 H       1  UNL1        0.2090
      4 H           7.0727    2.8547   13.7899 H       1  UNL1        0.0521
      5 C           7.0727    3.8219   13.2672 C.3     1  UNL1        0.0330
      6 O           7.0727    3.5688   11.8713 O.3     1  UNL1       -0.3982
@<TRIPOS>BOND
     1     3     6    1
     2     6     5    1
     3     5     1    1
     4     5     2    1
     5     5     4    1
