@<TRIPOS>MOLECULE
structure_986.xyz
 6 5 0 0 0
SMALL
GASTEIGER

@<TRIPOS>ATOM
      1 H           0.8766    0.5362    2.1491 H       1  UNL1        0.2090
      2 H           2.4930    2.9369    2.2406 H       1  UNL1        0.0521
      3 H           3.0555    1.3303    2.7848 H       1  UNL1        0.0521
      4 H           2.6780    1.6135    1.0569 H       1  UNL1        0.0521
      5 C           2.3827    1.8563    2.0899 C.3     1  UNL1        0.0330
      6 O           1.0069    1.5209    2.3271 O.3     1  UNL1       -0.3982
@<TRIPOS>BOND
     1     4     5    1
     2     5     2    1
     3     5     6    1
     4     5     3    1
     5     1     6    1
