@<TRIPOS>MOLECULE
structure_974.xyz
 6 5 0 0 0
SMALL
GASTEIGER

@<TRIPOS>ATOM
      1 H           8.5557    7.7616    5.8236 H       1  UNL1        0.0521
      2 H           8.1011    6.0904    5.3901 H       1  UNL1        0.0521
      3 H           8.1837    7.3481    4.1264 H       1  UNL1        0.0521
      4 H           6.3251    8.3704    5.2216 H       1  UNL1        0.2090
      5 C           7.9105    7.1489    5.1740 C.3     1  UNL1        0.0330
      6 O           6.5177    7.3997    5.4159 O.3     1  UNL1       -0.3982
@<TRIPOS>BOND
     1     3     5    1
     2     5     2    1
     3     5     6    1
     4     5     1    1
     5     4     6    1
