@<TRIPOS>MOLECULE
structure_2148.xyz
 6 5 0 0 0
SMALL
GASTEIGER

@<TRIPOS>ATOM
      1 H           0.8169    4.0088    0.4929 H       1  UNL1        0.2090
      2 H           1.2664    5.2119    2.4746 H       1  UNL1        0.0521
      3 H           2.4638    6.1188    1.5109 H       1  UNL1        0.0521
      4 H           2.7424    4.3939    1.8864 H       1  UNL1        0.0521
      5 C           1.9748    5.1438    1.6329 C.3     1  UNL1        0.0330
      6 O           1.3269    4.8403    0.3944 O.3     1  UNL1       -0.3982
@<TRIPOS>BOND
     1     6     1    1
     2     6     5    1
     3     3     5    1
     4     5     4    1
     5     5     2    1
