@<TRIPOS>MOLECULE
structure_160.xyz
 6 5 0 0 0
SMALL
GASTEIGER

@<TRIPOS>ATOM
      1 H           4.3002    4.0051    1.1129 H       1  UNL1        0.0521
      2 H           3.0380    2.0127    1.6789 H       1  UNL1        0.2090
      3 H           4.3808    4.2549    2.8750 H       1  UNL1        0.0521
      4 H           2.8088    4.2980    2.0560 H       1  UNL1        0.0521
      5 C           3.7919    3.8062    2.0681 C.3     1  UNL1        0.0330
      6 O           3.6747    2.4001    2.3325 O.3     1  UNL1       -0.3982
@<TRIPOS>BOND
     1     1     5    1
     2     2     6    1
     3     4     5    1
     4     5     6    1
     5     5     3    1
