@<TRIPOS>MOLECULE
structure_1295.xyz
 6 5 0 0 0
SMALL
GASTEIGER

@<TRIPOS>ATOM
      1 H          11.6627    1.5687    5.3716 H       1  UNL1        0.0521
      2 H          11.6649   -0.1543    4.9236 H       1  UNL1        0.0521
      3 H          10.3988    0.4796    6.0322 H       1  UNL1        0.0521
      4 H           9.6011    0.2486    3.8335 H       1  UNL1        0.2090
      5 C          11.0209    0.7070    5.1531 C.3     1  UNL1        0.0330
      6 O          10.1900    1.0428    4.0226 O.3     1  UNL1       -0.3982
@<TRIPOS>BOND
     1     4     6    1
     2     6     5    1
     3     2     5    1
     4     5     1    1
     5     5     3    1
