@<TRIPOS>MOLECULE
structure_889.xyz
 6 5 0 0 0
SMALL
GASTEIGER

@<TRIPOS>ATOM
      1 H           2.2948    1.5748    5.9181 H       1  UNL1        0.0521
      2 H           0.1433    3.2506    5.0896 H       1  UNL1        0.2090
      3 H           0.8720    0.7439    5.2185 H       1  UNL1        0.0521
      4 H           1.7545    1.9810    4.2660 H       1  UNL1        0.0521
      5 C           1.4137    1.7033    5.2743 C.3     1  UNL1        0.0330
      6 O           0.5751    2.7211    5.8378 O.3     1  UNL1       -0.3982
@<TRIPOS>BOND
     1     4     5    1
     2     2     6    1
     3     3     5    1
     4     5     6    1
     5     5     1    1
