@<TRIPOS>MOLECULE
structure_2095.xyz
 6 5 0 0 0
SMALL
GASTEIGER

@<TRIPOS>ATOM
      1 H           0.0446   11.7851    0.6598 H       1  UNL1        0.2090
      2 H           0.1426   11.3859    2.9459 H       1  UNL1        0.0521
      3 H           1.2209   12.7418    2.4873 H       1  UNL1        0.0521
      4 H           1.8824   11.1015    2.7352 H       1  UNL1        0.0521
      5 C           1.0247   11.6634    2.3460 C.3     1  UNL1        0.0330
      6 O           0.8597   11.3224    0.9687 O.3     1  UNL1       -0.3982
@<TRIPOS>BOND
     1     1     6    1
     2     6     5    1
     3     5     3    1
     4     5     4    1
     5     5     2    1
