@<TRIPOS>MOLECULE
structure_2337.xyz
 6 5 0 0 0
SMALL
GASTEIGER

@<TRIPOS>ATOM
      1 H           1.9192   17.2295    4.7867 H       1  UNL1        0.0521
      2 H           0.8282   17.5628    3.4146 H       1  UNL1        0.0521
      3 H           2.3588   18.8263    2.4872 H       1  UNL1        0.2090
      4 H           2.1091   16.3201    3.2553 H       1  UNL1        0.0521
      5 C           1.8597   17.3006    3.6914 C.3     1  UNL1        0.0330
      6 O           2.7860   18.2991    3.2383 O.3     1  UNL1       -0.3982
@<TRIPOS>BOND
     1     3     6    1
     2     6     5    1
     3     4     5    1
     4     2     5    1
     5     5     1    1
