@<TRIPOS>MOLECULE
structure_235.xyz
 6 5 0 0 0
SMALL
GASTEIGER

@<TRIPOS>ATOM
      1 H           2.4176    1.2308    5.9966 H       1  UNL1        0.0521
      2 H           4.1994    1.1644    6.0511 H       1  UNL1        0.0521
      3 H           4.1795    1.5597    3.7330 H       1  UNL1        0.2090
      4 H           3.3707    2.7073    5.6701 H       1  UNL1        0.0521
      5 C           3.3362    1.6125    5.5300 C.3     1  UNL1        0.0330
      6 O           3.3167    1.2463    4.1576 O.3     1  UNL1       -0.3982
@<TRIPOS>BOND
     1     3     6    1
     2     6     5    1
     3     5     4    1
     4     5     1    1
     5     5     2    1
