@<TRIPOS>MOLECULE
structure_924.xyz
 6 5 0 0 0
SMALL
GASTEIGER

@<TRIPOS>ATOM
      1 H           1.6803    1.9799    1.8720 H       1  UNL1        0.0521
      2 H           2.4902    0.4291    1.5126 H       1  UNL1        0.0521
      3 H           3.8899    2.9370    1.8935 H       1  UNL1        0.2090
      4 H           2.5500    1.7584    0.3215 H       1  UNL1        0.0521
      5 C           2.5600    1.5175    1.3952 C.3     1  UNL1        0.0330
      6 O           3.7890    1.9410    2.0106 O.3     1  UNL1       -0.3982
@<TRIPOS>BOND
     1     4     5    1
     2     5     2    1
     3     5     1    1
     4     5     6    1
     5     3     6    1
