@<TRIPOS>MOLECULE
structure_2188.xyz
 6 5 0 0 0
SMALL
GASTEIGER

@<TRIPOS>ATOM
      1 H          -0.8839    6.2823    1.9328 H       1  UNL1        0.2090
      2 H          -1.1317    3.7705    2.7493 H       1  UNL1        0.0521
      3 H          -1.3597    4.7297    4.2443 H       1  UNL1        0.0521
      4 H          -2.4178    5.0174    2.8396 H       1  UNL1        0.0521
      5 C          -1.3927    4.7644    3.1462 C.3     1  UNL1        0.0330
      6 O          -0.4571    5.7488    2.6811 O.3     1  UNL1       -0.3982
@<TRIPOS>BOND
     1     1     6    1
     2     6     5    1
     3     2     5    1
     4     4     5    1
     5     5     3    1
