@<TRIPOS>MOLECULE
structure_940.xyz
 6 5 0 0 0
SMALL
GASTEIGER

@<TRIPOS>ATOM
      1 H           0.8446    3.7298   -0.4841 H       1  UNL1        0.0521
      2 H           0.6040    4.2064    1.8541 H       1  UNL1        0.2090
      3 H           1.5431    2.4751    0.5909 H       1  UNL1        0.0521
      4 H           2.5985    3.7171   -0.1387 H       1  UNL1        0.0521
      5 C           1.6052    3.5357    0.2932 C.3     1  UNL1        0.0330
      6 O           1.4591    4.4149    1.4117 O.3     1  UNL1       -0.3982
@<TRIPOS>BOND
     1     1     5    1
     2     4     5    1
     3     5     3    1
     4     5     6    1
     5     6     2    1
