@<TRIPOS>MOLECULE
structure_243.xyz
 6 5 0 0 0
SMALL
GASTEIGER

@<TRIPOS>ATOM
      1 H           0.9593    5.0253    1.9781 H       1  UNL1        0.0521
      2 H           0.2152    5.2958    3.5773 H       1  UNL1        0.0521
      3 H           1.7343    6.1440    3.1470 H       1  UNL1        0.0521
      4 H           2.3560    3.5910    2.8574 H       1  UNL1        0.2090
      5 C           1.1710    5.2020    3.0428 C.3     1  UNL1        0.0330
      6 O           1.9123    4.1114    3.6039 O.3     1  UNL1       -0.3982
@<TRIPOS>BOND
     1     1     5    1
     2     4     6    1
     3     5     3    1
     4     5     2    1
     5     5     6    1
