@<TRIPOS>MOLECULE
structure_2117.xyz
 6 5 0 0 0
SMALL
GASTEIGER

@<TRIPOS>ATOM
      1 H           6.0082    5.6114    3.6975 H       1  UNL1        0.0521
      2 H           4.7965    6.8683    1.9823 H       1  UNL1        0.2090
      3 H           5.4939    4.6717    2.2510 H       1  UNL1        0.0521
      4 H           4.5403    4.5860    3.7405 H       1  UNL1        0.0521
      5 C           5.1467    5.2518    3.1175 C.3     1  UNL1        0.0330
      6 O           4.3019    6.3460    2.6856 O.3     1  UNL1       -0.3982
@<TRIPOS>BOND
     1     2     6    1
     2     3     5    1
     3     6     5    1
     4     5     1    1
     5     5     4    1
