@<TRIPOS>MOLECULE
structure_1610.xyz
 6 5 0 0 0
SMALL
GASTEIGER

@<TRIPOS>ATOM
      1 H           6.8599   11.6526    1.9793 H       1  UNL1        0.0521
      2 H           4.9898   10.7637   -0.0246 H       1  UNL1        0.2090
      3 H           5.4599   12.5314    1.3076 H       1  UNL1        0.0521
      4 H           5.2012   11.1737    2.4422 H       1  UNL1        0.0521
      5 C           5.8298   11.5432    1.6152 C.3     1  UNL1        0.0330
      6 O           5.8403   10.6291    0.5080 O.3     1  UNL1       -0.3982
@<TRIPOS>BOND
     1     2     6    1
     2     6     5    1
     3     3     5    1
     4     5     1    1
     5     5     4    1
