@<TRIPOS>MOLECULE
structure_988.xyz
 6 5 0 0 0
SMALL
GASTEIGER

@<TRIPOS>ATOM
      1 H           0.2552    5.7975   -0.1686 H       1  UNL1        0.0521
      2 H           0.2313    4.3394    1.4782 H       1  UNL1        0.2090
      3 H           0.7502    4.3572   -1.0992 H       1  UNL1        0.0521
      4 H           1.9873    5.4745   -0.4467 H       1  UNL1        0.0521
      5 C           1.0138    5.0057   -0.2470 C.3     1  UNL1        0.0330
      6 O           1.0972    4.2386    0.9617 O.3     1  UNL1       -0.3982
@<TRIPOS>BOND
     1     3     5    1
     2     4     5    1
     3     5     1    1
     4     5     6    1
     5     6     2    1
