@<TRIPOS>MOLECULE
structure_427.xyz
 6 5 0 0 0
SMALL
GASTEIGER

@<TRIPOS>ATOM
      1 H           2.7054    2.0561    1.0736 H       1  UNL1        0.0521
      2 H           3.6870    3.1955    0.0906 H       1  UNL1        0.0521
      3 H           4.3854    2.4306    1.5470 H       1  UNL1        0.0521
      4 H           4.4787    0.4388    0.4229 H       1  UNL1        0.2090
      5 C           3.7147    2.2758    0.6882 C.3     1  UNL1        0.0330
      6 O           4.1984    1.2179   -0.1536 O.3     1  UNL1       -0.3982
@<TRIPOS>BOND
     1     6     4    1
     2     6     5    1
     3     2     5    1
     4     5     1    1
     5     5     3    1
