@<TRIPOS>MOLECULE
structure_977.xyz
 6 5 0 0 0
SMALL
GASTEIGER

@<TRIPOS>ATOM
      1 H           0.4135    3.6864    4.8506 H       1  UNL1        0.0521
      2 H           1.2021    3.4955    7.2310 H       1  UNL1        0.2090
      3 H           1.5190    4.9346    5.5090 H       1  UNL1        0.0521
      4 H           2.1609    3.5855    4.5147 H       1  UNL1        0.0521
      5 C           1.4177    3.8635    5.2750 C.3     1  UNL1        0.0330
      6 O           1.6330    3.0511    6.4314 O.3     1  UNL1       -0.3982
@<TRIPOS>BOND
     1     4     5    1
     2     1     5    1
     3     5     3    1
     4     5     6    1
     5     6     2    1
