@<TRIPOS>MOLECULE
structure_981.xyz
 6 5 0 0 0
SMALL
GASTEIGER

@<TRIPOS>ATOM
      1 H           1.5558    3.9806    0.3451 H       1  UNL1        0.0521
      2 H           0.3821    4.0943    1.6876 H       1  UNL1        0.0521
      3 H           2.1977    5.1529    2.5268 H       1  UNL1        0.2090
      4 H           0.3359    5.2789    0.3420 H       1  UNL1        0.0521
      5 C           0.9924    4.6787    0.9838 C.3     1  UNL1        0.0330
      6 O           1.8865    5.5709    1.6678 O.3     1  UNL1       -0.3982
@<TRIPOS>BOND
     1     4     5    1
     2     1     5    1
     3     5     6    1
     4     5     2    1
     5     6     3    1
