@<TRIPOS>MOLECULE
structure_535.xyz
 6 5 0 0 0
SMALL
GASTEIGER

@<TRIPOS>ATOM
      1 H           9.9781    5.7462    1.2501 H       1  UNL1        0.0521
      2 H           9.7968    5.6534    3.0214 H       1  UNL1        0.0521
      3 H           8.5693    4.9019    1.9638 H       1  UNL1        0.0521
      4 H           7.9810    7.0620    1.2692 H       1  UNL1        0.2090
      5 C           9.2507    5.7594    2.0759 C.3     1  UNL1        0.0330
      6 O           8.5339    7.0047    2.1136 O.3     1  UNL1       -0.3982
@<TRIPOS>BOND
     1     1     5    1
     2     4     6    1
     3     3     5    1
     4     5     6    1
     5     5     2    1
