@<TRIPOS>MOLECULE
structure_580.xyz
 6 5 0 0 0
SMALL
GASTEIGER

@<TRIPOS>ATOM
      1 H           4.2255    1.4771   -0.2449 H       1  UNL1        0.0521
      2 H           2.4324    1.4771   -0.2449 H       1  UNL1        0.0521
      3 H           3.3290    1.2701    1.2850 H       1  UNL1        0.0521
      4 H           3.3290    3.6885   -0.3001 H       1  UNL1        0.2090
      5 C           3.3290    1.7921    0.3177 C.3     1  UNL1        0.0330
      6 O           3.3290    3.1858    0.5701 O.3     1  UNL1       -0.3982
@<TRIPOS>BOND
     1     4     6    1
     2     1     5    1
     3     2     5    1
     4     5     6    1
     5     5     3    1
