@<TRIPOS>MOLECULE
structure_2027.xyz
 6 5 0 0 0
SMALL
GASTEIGER

@<TRIPOS>ATOM
      1 H           5.6148    6.1837    1.0298 H       1  UNL1        0.0521
      2 H           6.0981    4.8696    2.1363 H       1  UNL1        0.0521
      3 H           6.3048    4.6688    0.3759 H       1  UNL1        0.0521
      4 H           3.8859    4.8394    0.2756 H       1  UNL1        0.2090
      5 C           5.6534    5.0897    1.1577 C.3     1  UNL1        0.0330
      6 O           4.3435    4.5081    1.1120 O.3     1  UNL1       -0.3982
@<TRIPOS>BOND
     1     4     6    1
     2     3     5    1
     3     1     5    1
     4     6     5    1
     5     5     2    1
