@<TRIPOS>MOLECULE
structure_1730.xyz
 6 5 0 0 0
SMALL
GASTEIGER

@<TRIPOS>ATOM
      1 H           2.6267    1.1069    1.9286 H       1  UNL1        0.0521
      2 H           2.8995    1.1269    0.1639 H       1  UNL1        0.0521
      3 H           3.3558    3.3436    0.2811 H       1  UNL1        0.2090
      4 H           4.3019    1.2443    1.2875 H       1  UNL1        0.0521
      5 C           3.2484    1.5232    1.1277 C.3     1  UNL1        0.0330
      6 O           3.0852    2.9501    1.1626 O.3     1  UNL1       -0.3982
@<TRIPOS>BOND
     1     2     5    1
     2     3     6    1
     3     5     6    1
     4     5     4    1
     5     5     1    1
