@<TRIPOS>MOLECULE
structure_814.xyz
 6 5 0 0 0
SMALL
GASTEIGER

@<TRIPOS>ATOM
      1 H           7.2238    1.3305    1.4841 H       1  UNL1        0.0521
      2 H           6.8170    2.9978    1.9699 H       1  UNL1        0.0521
      3 H           5.9360    1.6196    2.6993 H       1  UNL1        0.0521
      4 H           5.4306    1.2496    0.1928 H       1  UNL1        0.2090
      5 C           6.4008    1.9998    1.7744 C.3     1  UNL1        0.0330
      6 O           5.4246    2.1071    0.7286 O.3     1  UNL1       -0.3982
@<TRIPOS>BOND
     1     4     6    1
     2     6     5    1
     3     1     5    1
     4     5     2    1
     5     5     3    1
