@<TRIPOS>MOLECULE
structure_209.xyz
 6 5 0 0 0
SMALL
GASTEIGER

@<TRIPOS>ATOM
      1 H          -0.3598    1.2261    2.8113 H       1  UNL1        0.2090
      2 H           0.6578    3.4019    3.4211 H       1  UNL1        0.0521
      3 H           1.3312    1.9431    4.2195 H       1  UNL1        0.0521
      4 H           2.1564    2.6529    2.8013 H       1  UNL1        0.0521
      5 C           1.1766    2.4452    3.2525 C.3     1  UNL1        0.0330
      6 O           0.4457    1.6149    2.3381 O.3     1  UNL1       -0.3982
@<TRIPOS>BOND
     1     6     1    1
     2     6     5    1
     3     4     5    1
     4     5     2    1
     5     5     3    1
