@<TRIPOS>MOLECULE
structure_377.xyz
 6 5 0 0 0
SMALL
GASTEIGER

@<TRIPOS>ATOM
      1 H           7.3134   12.9541    2.1046 H       1  UNL1        0.0521
      2 H           5.2434   13.9213    1.4082 H       1  UNL1        0.2090
      3 H           6.3261   11.8355    3.0849 H       1  UNL1        0.0521
      4 H           6.2217   11.7821    1.3047 H       1  UNL1        0.0521
      5 C           6.3329   12.4506    2.1749 C.3     1  UNL1        0.0330
      6 O           5.2546   13.3752    2.2571 O.3     1  UNL1       -0.3982
@<TRIPOS>BOND
     1     4     5    1
     2     2     6    1
     3     1     5    1
     4     5     6    1
     5     5     3    1
