@<TRIPOS>MOLECULE
structure_772.xyz
 6 5 0 0 0
SMALL
GASTEIGER

@<TRIPOS>ATOM
      1 H           2.6593    1.9639    4.3438 H       1  UNL1        0.0521
      2 H           3.5251    3.1537    3.3028 H       1  UNL1        0.0521
      3 H           3.5032    0.7581    2.5831 H       1  UNL1        0.2090
      4 H           4.3127    2.4788    4.7543 H       1  UNL1        0.0521
      5 C           3.6353    2.2502    3.9208 C.3     1  UNL1        0.0330
      6 O           4.2145    1.1774    3.1637 O.3     1  UNL1       -0.3982
@<TRIPOS>BOND
     1     3     6    1
     2     6     5    1
     3     2     5    1
     4     5     1    1
     5     5     4    1
