@<TRIPOS>MOLECULE
structure_145.xyz
 6 5 0 0 0
SMALL
GASTEIGER

@<TRIPOS>ATOM
      1 H           6.7847    7.5297    5.6706 H       1  UNL1        0.0521
      2 H           6.5342    4.6540    5.4587 H       1  UNL1        0.2090
      3 H           5.3192    6.6793    6.1876 H       1  UNL1        0.0521
      4 H           5.8030    6.6490    4.4595 H       1  UNL1        0.0521
      5 C           6.1753    6.6351    5.4956 C.3     1  UNL1        0.0330
      6 O           6.9963    5.4901    5.7603 O.3     1  UNL1       -0.3982
@<TRIPOS>BOND
     1     4     5    1
     2     2     6    1
     3     5     1    1
     4     5     6    1
     5     5     3    1
