@<TRIPOS>MOLECULE
structure_927.xyz
 6 5 0 0 0
SMALL
GASTEIGER

@<TRIPOS>ATOM
      1 H           1.5536    4.9283    6.6732 H       1  UNL1        0.2090
      2 H           3.2628    6.2993    5.6864 H       1  UNL1        0.0521
      3 H           3.8513    4.6815    6.1880 H       1  UNL1        0.0521
      4 H           3.4408    4.9951    4.4790 H       1  UNL1        0.0521
      5 C           3.1618    5.2170    5.5172 C.3     1  UNL1        0.0330
      6 O           1.8012    4.7949    5.7049 O.3     1  UNL1       -0.3982
@<TRIPOS>BOND
     1     4     5    1
     2     5     2    1
     3     5     6    1
     4     5     3    1
     5     6     1    1
