@<TRIPOS>MOLECULE
structure_975.xyz
 6 5 0 0 0
SMALL
GASTEIGER

@<TRIPOS>ATOM
      1 H           0.0285   -0.2677    6.4989 H       1  UNL1        0.2090
      2 H           2.2230    0.5773    6.1477 H       1  UNL1        0.0521
      3 H           1.9263    0.3700    4.4040 H       1  UNL1        0.0521
      4 H           2.0219   -1.0632    5.4624 H       1  UNL1        0.0521
      5 C           1.6796   -0.0182    5.3995 C.3     1  UNL1        0.0330
      6 O           0.2610    0.0782    5.5761 O.3     1  UNL1       -0.3982
@<TRIPOS>BOND
     1     3     5    1
     2     5     4    1
     3     5     6    1
     4     5     2    1
     5     6     1    1
