@<TRIPOS>MOLECULE
structure_971.xyz
 6 5 0 0 0
SMALL
GASTEIGER

@<TRIPOS>ATOM
      1 H           3.0651   12.3379    2.2917 H       1  UNL1        0.0521
      2 H           2.8849    9.8268    2.7598 H       1  UNL1        0.2090
      3 H           3.0348   11.7190    0.6152 H       1  UNL1        0.0521
      4 H           4.3230   11.1864    1.7329 H       1  UNL1        0.0521
      5 C           3.2595   11.4566    1.6573 C.3     1  UNL1        0.0330
      6 O           2.4156   10.3637    2.0415 O.3     1  UNL1       -0.3982
@<TRIPOS>BOND
     1     3     5    1
     2     5     4    1
     3     5     6    1
     4     5     1    1
     5     6     2    1
