@<TRIPOS>MOLECULE
structure_1373.xyz
 6 5 0 0 0
SMALL
GASTEIGER

@<TRIPOS>ATOM
      1 H           8.7183    5.0825    5.3555 H       1  UNL1        0.0521
      2 H           6.8292    6.2122    4.3494 H       1  UNL1        0.2090
      3 H           7.8083    3.5750    5.0442 H       1  UNL1        0.0521
      4 H           7.1559    4.7858    6.1822 H       1  UNL1        0.0521
      5 C           7.7118    4.6499    5.2418 C.3     1  UNL1        0.0330
      6 O           6.9957    5.2355    4.1427 O.3     1  UNL1       -0.3982
@<TRIPOS>BOND
     1     6     2    1
     2     6     5    1
     3     3     5    1
     4     5     1    1
     5     5     4    1
