@<TRIPOS>MOLECULE
structure_956.xyz
 6 5 0 0 0
SMALL
GASTEIGER

@<TRIPOS>ATOM
      1 H           0.5043    3.3422    4.8560 H       1  UNL1        0.0521
      2 H           0.8920    4.3511    6.2763 H       1  UNL1        0.0521
      3 H           2.6540    4.0061    4.0138 H       1  UNL1        0.2090
      4 H           1.8727    2.9023    5.9298 H       1  UNL1        0.0521
      5 C           1.3249    3.7416    5.4728 C.3     1  UNL1        0.0330
      6 O           2.2069    4.5810    4.7144 O.3     1  UNL1       -0.3982
@<TRIPOS>BOND
     1     3     6    1
     2     6     5    1
     3     1     5    1
     4     5     4    1
     5     5     2    1
