@<TRIPOS>MOLECULE
structure_376.xyz
 6 5 0 0 0
SMALL
GASTEIGER

@<TRIPOS>ATOM
      1 H           5.9047    2.4188    1.4234 H       1  UNL1        0.0521
      2 H           4.9938    1.2705    0.3906 H       1  UNL1        0.0521
      3 H           4.7307    3.0228    0.2106 H       1  UNL1        0.0521
      4 H           3.3492    2.9956    1.8851 H       1  UNL1        0.2090
      5 C           4.9359    2.2226    0.9370 C.3     1  UNL1        0.0330
      6 O           3.8947    2.1429    1.9231 O.3     1  UNL1       -0.3982
@<TRIPOS>BOND
     1     3     5    1
     2     2     5    1
     3     5     1    1
     4     5     6    1
     5     4     6    1
