@<TRIPOS>MOLECULE
structure_1988.xyz
 6 5 0 0 0
SMALL
GASTEIGER

@<TRIPOS>ATOM
      1 H           1.3859    5.6080    1.3976 H       1  UNL1        0.0521
      2 H           1.2047    4.8994    3.0294 H       1  UNL1        0.0521
      3 H           2.2802    3.5396    1.1859 H       1  UNL1        0.2090
      4 H           2.5798    5.9861    2.6719 H       1  UNL1        0.0521
      5 C           1.9335    5.1984    2.2605 C.3     1  UNL1        0.0330
      6 O           2.7700    4.1060    1.8660 O.3     1  UNL1       -0.3982
@<TRIPOS>BOND
     1     3     6    1
     2     1     5    1
     3     6     5    1
     4     5     4    1
     5     5     2    1
