@<TRIPOS>MOLECULE
structure_796.xyz
 6 5 0 0 0
SMALL
GASTEIGER

@<TRIPOS>ATOM
      1 H          11.9646    3.3046    3.4711 H       1  UNL1        0.0521
      2 H          10.4841    2.3759    3.8684 H       1  UNL1        0.0521
      3 H          10.4304    4.1545    3.8382 H       1  UNL1        0.0521
      4 H          10.0382    4.0735    1.7187 H       1  UNL1        0.2090
      5 C          10.8704    3.2694    3.3563 C.3     1  UNL1        0.0330
      6 O          10.5257    3.2197    1.9616 O.3     1  UNL1       -0.3982
@<TRIPOS>BOND
     1     4     6    1
     2     6     5    1
     3     5     1    1
     4     5     3    1
     5     5     2    1
