@<TRIPOS>MOLECULE
structure_212.xyz
 6 5 0 0 0
SMALL
GASTEIGER

@<TRIPOS>ATOM
      1 H           6.7669    5.7911    2.9821 H       1  UNL1        0.2090
      2 H           6.4927    4.6389    0.9710 H       1  UNL1        0.0521
      3 H           5.6184    3.7732    2.2769 H       1  UNL1        0.0521
      4 H           4.7328    4.8463    1.1536 H       1  UNL1        0.0521
      5 C           5.6733    4.7118    1.7035 C.3     1  UNL1        0.0330
      6 O           5.8431    5.8392    2.5740 O.3     1  UNL1       -0.3982
@<TRIPOS>BOND
     1     2     5    1
     2     4     5    1
     3     5     3    1
     4     5     6    1
     5     6     1    1
