@<TRIPOS>MOLECULE
structure_367.xyz
 6 5 0 0 0
SMALL
GASTEIGER

@<TRIPOS>ATOM
      1 H           8.9216    4.9675    2.0513 H       1  UNL1        0.2090
      2 H          10.8540    3.5458    3.6661 H       1  UNL1        0.0521
      3 H          10.4503    3.0917    1.9868 H       1  UNL1        0.0521
      4 H          11.2394    4.6652    2.3269 H       1  UNL1        0.0521
      5 C          10.5009    3.9331    2.7002 C.3     1  UNL1        0.0330
      6 O           9.2202    4.5139    2.9006 O.3     1  UNL1       -0.3982
@<TRIPOS>BOND
     1     3     5    1
     2     1     6    1
     3     4     5    1
     4     5     6    1
     5     5     2    1
