@<TRIPOS>MOLECULE
structure_440.xyz
 6 5 0 0 0
SMALL
GASTEIGER

@<TRIPOS>ATOM
      1 H           6.2778    0.1468    0.7527 H       1  UNL1        0.2090
      2 H           5.9321    2.5029    0.8623 H       1  UNL1        0.0521
      3 H           5.6181    2.4253   -0.8943 H       1  UNL1        0.0521
      4 H           4.4965    1.6241    0.2411 H       1  UNL1        0.0521
      5 C           5.5573    1.8606    0.0462 C.3     1  UNL1        0.0330
      6 O           6.3524    0.6904   -0.0902 O.3     1  UNL1       -0.3982
@<TRIPOS>BOND
     1     3     5    1
     2     6     5    1
     3     6     1    1
     4     5     4    1
     5     5     2    1
