@<TRIPOS>MOLECULE
structure_314.xyz
 6 5 0 0 0
SMALL
GASTEIGER

@<TRIPOS>ATOM
      1 H          -0.5362    9.4722    1.1510 H       1  UNL1        0.0521
      2 H          -0.6541    7.6798    1.1574 H       1  UNL1        0.0521
      3 H          -0.6699    8.5718   -0.3814 H       1  UNL1        0.0521
      4 H           1.6241    8.4574    1.3922 H       1  UNL1        0.2090
      5 C          -0.2362    8.5509    0.6267 C.3     1  UNL1        0.0330
      6 O           1.1815    8.4561    0.4897 O.3     1  UNL1       -0.3982
@<TRIPOS>BOND
     1     3     5    1
     2     6     5    1
     3     6     4    1
     4     5     1    1
     5     5     2    1
