@<TRIPOS>MOLECULE
structure_230.xyz
 6 5 0 0 0
SMALL
GASTEIGER

@<TRIPOS>ATOM
      1 H           2.1232    5.5565    1.1512 H       1  UNL1        0.0521
      2 H           0.2521    4.6386    3.1591 H       1  UNL1        0.2090
      3 H           1.6903    6.5421    2.5713 H       1  UNL1        0.0521
      4 H           0.4407    6.1061    1.3567 H       1  UNL1        0.0521
      5 C           1.3370    5.7517    1.8911 C.3     1  UNL1        0.0330
      6 O           1.0844    4.5310    2.5994 O.3     1  UNL1       -0.3982
@<TRIPOS>BOND
     1     1     5    1
     2     4     5    1
     3     5     3    1
     4     5     6    1
     5     6     2    1
