@<TRIPOS>MOLECULE
structure_239.xyz
 6 5 0 0 0
SMALL
GASTEIGER

@<TRIPOS>ATOM
      1 H           6.2271   12.7296    2.6961 H       1  UNL1        0.0521
      2 H           4.5109   12.2855    2.9706 H       1  UNL1        0.0521
      3 H           4.7886   14.6291    2.7630 H       1  UNL1        0.2090
      4 H           5.2186   12.1577    1.3358 H       1  UNL1        0.0521
      5 C           5.2140   12.7535    2.2590 C.3     1  UNL1        0.0330
      6 O           4.8037   14.0709    1.9296 O.3     1  UNL1       -0.3982
@<TRIPOS>BOND
     1     4     5    1
     2     6     5    1
     3     6     3    1
     4     5     1    1
     5     5     2    1
