@<TRIPOS>MOLECULE
structure_792.xyz
 6 5 0 0 0
SMALL
GASTEIGER

@<TRIPOS>ATOM
      1 H           9.9860    2.4055    4.3265 H       1  UNL1        0.0521
      2 H           9.3245    0.7522    4.2849 H       1  UNL1        0.0521
      3 H           8.2290    2.1439    4.0740 H       1  UNL1        0.0521
      4 H           9.1438    2.5030    1.9947 H       1  UNL1        0.2090
      5 C           9.2346    1.7567    3.8494 C.3     1  UNL1        0.0330
      6 O           9.4666    1.6507    2.4387 O.3     1  UNL1       -0.3982
@<TRIPOS>BOND
     1     4     6    1
     2     6     5    1
     3     5     3    1
     4     5     2    1
     5     5     1    1
