@<TRIPOS>MOLECULE
structure_1927.xyz
 6 5 0 0 0
SMALL
GASTEIGER

@<TRIPOS>ATOM
      1 H          12.5030    0.4829    1.2821 H       1  UNL1        0.0521
      2 H          12.2675    0.9539   -0.9720 H       1  UNL1        0.2090
      3 H          11.3339   -0.8602    1.0774 H       1  UNL1        0.0521
      4 H          10.7691    0.8310    0.9721 H       1  UNL1        0.0521
      5 C          11.6035    0.1493    0.7436 C.3     1  UNL1        0.0330
      6 O          11.8402    0.0909   -0.6708 O.3     1  UNL1       -0.3982
@<TRIPOS>BOND
     1     2     6    1
     2     6     5    1
     3     5     4    1
     4     5     3    1
     5     5     1    1
