@<TRIPOS>MOLECULE
structure_991.xyz
 6 5 0 0 0
SMALL
GASTEIGER

@<TRIPOS>ATOM
      1 H           0.1223    1.9902    6.6944 H       1  UNL1        0.0521
      2 H           0.9804    1.7110    5.1621 H       1  UNL1        0.0521
      3 H           1.2986    3.9619    4.9987 H       1  UNL1        0.2090
      4 H           1.8973    2.2154    6.6108 H       1  UNL1        0.0521
      5 C           0.9465    2.3437    6.0627 C.3     1  UNL1        0.0330
      6 O           0.6947    3.7154    5.7384 O.3     1  UNL1       -0.3982
@<TRIPOS>BOND
     1     3     6    1
     2     2     5    1
     3     6     5    1
     4     5     4    1
     5     5     1    1
