@<TRIPOS>MOLECULE
structure_843.xyz
 6 5 0 0 0
SMALL
GASTEIGER

@<TRIPOS>ATOM
      1 H           2.6533    5.2227    6.8539 H       1  UNL1        0.0521
      2 H           2.9435    4.3970    8.4109 H       1  UNL1        0.0521
      3 H           1.6744    3.7918    7.3224 H       1  UNL1        0.0521
      4 H           3.1940    2.8799    6.0078 H       1  UNL1        0.2090
      5 C           2.6765    4.2441    7.3571 C.3     1  UNL1        0.0330
      6 O           3.6539    3.3834    6.7535 O.3     1  UNL1       -0.3982
@<TRIPOS>BOND
     1     4     6    1
     2     6     5    1
     3     1     5    1
     4     3     5    1
     5     5     2    1
