@<TRIPOS>MOLECULE
structure_282.xyz
 6 5 0 0 0
SMALL
GASTEIGER

@<TRIPOS>ATOM
      1 H           7.3622    3.7665    1.6053 H       1  UNL1        0.2090
      2 H           6.6292    5.9128    1.0368 H       1  UNL1        0.0521
      3 H           7.9162    5.9655   -0.2010 H       1  UNL1        0.0521
      4 H           8.3543    6.0111    1.5214 H       1  UNL1        0.0521
      5 C           7.6501    5.5799    0.7928 C.3     1  UNL1        0.0330
      6 O           7.7526    4.1497    0.7524 O.3     1  UNL1       -0.3982
@<TRIPOS>BOND
     1     3     5    1
     2     6     5    1
     3     6     1    1
     4     5     2    1
     5     5     4    1
