@<TRIPOS>MOLECULE
structure_2323.xyz
 6 5 0 0 0
SMALL
GASTEIGER

@<TRIPOS>ATOM
      1 H           5.4871    3.8445   23.4442 H       1  UNL1        0.2090
      2 H           5.0136    3.3522   25.9716 H       1  UNL1        0.0521
      3 H           4.0624    2.0736   25.1562 H       1  UNL1        0.0521
      4 H           3.7426    3.7901   24.7831 H       1  UNL1        0.0521
      5 C           4.5283    3.0602   25.0255 C.3     1  UNL1        0.0330
      6 O           5.4966    2.9789   23.9718 O.3     1  UNL1       -0.3982
@<TRIPOS>BOND
     1     1     6    1
     2     6     5    1
     3     4     5    1
     4     5     3    1
     5     5     2    1
