@<TRIPOS>MOLECULE
structure_27.xyz
 6 5 0 0 0
SMALL
GASTEIGER

@<TRIPOS>ATOM
      1 H           5.6273   12.8847    3.9536 H       1  UNL1        0.0521
      2 H           3.9475   14.4544    3.4090 H       1  UNL1        0.2090
      3 H           4.0601   12.0740    3.6384 H       1  UNL1        0.0521
      4 H           5.3125   12.1330    2.3664 H       1  UNL1        0.0521
      5 C           4.8532   12.6966    3.1895 C.3     1  UNL1        0.0330
      6 O           4.3189   13.8998    2.6571 O.3     1  UNL1       -0.3982
@<TRIPOS>BOND
     1     4     5    1
     2     6     5    1
     3     6     2    1
     4     5     3    1
     5     5     1    1
