@<TRIPOS>MOLECULE
structure_941.xyz
 6 5 0 0 0
SMALL
GASTEIGER

@<TRIPOS>ATOM
      1 H           0.5177    2.5742    4.2836 H       1  UNL1        0.0521
      2 H           0.6587    1.7175    7.0122 H       1  UNL1        0.2090
      3 H           0.9165    3.6196    5.6642 H       1  UNL1        0.0521
      4 H           2.0618    2.3334    5.1543 H       1  UNL1        0.0521
      5 C           0.9944    2.5915    5.2714 C.3     1  UNL1        0.0330
      6 O           0.3036    1.6445    6.0971 O.3     1  UNL1       -0.3982
@<TRIPOS>BOND
     1     1     5    1
     2     4     5    1
     3     5     3    1
     4     5     6    1
     5     6     2    1
