@<TRIPOS>MOLECULE
structure_906.xyz
 6 5 0 0 0
SMALL
GASTEIGER

@<TRIPOS>ATOM
      1 H           7.3396    3.4952    1.8115 H       1  UNL1        0.2090
      2 H           9.6030    2.4815    3.3043 H       1  UNL1        0.0521
      3 H           9.5256    2.8080    1.5582 H       1  UNL1        0.0521
      4 H           9.5217    4.1709    2.7202 H       1  UNL1        0.0521
      5 C           9.1671    3.1425    2.5447 C.3     1  UNL1        0.0330
      6 O           7.7378    3.0486    2.6289 O.3     1  UNL1       -0.3982
@<TRIPOS>BOND
     1     3     5    1
     2     1     6    1
     3     5     6    1
     4     5     4    1
     5     5     2    1
