@<TRIPOS>MOLECULE
structure_897.xyz
 6 5 0 0 0
SMALL
GASTEIGER

@<TRIPOS>ATOM
      1 H           3.8720    1.8765    4.6454 H       1  UNL1        0.0521
      2 H           5.4984    1.5563    5.3003 H       1  UNL1        0.0521
      3 H           4.9285    0.6615    3.8553 H       1  UNL1        0.0521
      4 H           4.7302    3.1925    3.1226 H       1  UNL1        0.2090
      5 C           4.9101    1.6332    4.3751 C.3     1  UNL1        0.0330
      6 O           5.4789    2.6547    3.5435 O.3     1  UNL1       -0.3982
@<TRIPOS>BOND
     1     4     6    1
     2     6     5    1
     3     3     5    1
     4     5     1    1
     5     5     2    1
