@<TRIPOS>MOLECULE
structure_127.xyz
 6 5 0 0 0
SMALL
GASTEIGER

@<TRIPOS>ATOM
      1 H           5.6996   13.5053   -0.2795 H       1  UNL1        0.0521
      2 H           7.4937   13.5053   -0.2795 H       1  UNL1        0.0521
      3 H           6.5967   13.6454    1.2564 H       1  UNL1        0.0521
      4 H           6.5967   11.3017   -0.4380 H       1  UNL1        0.2090
      5 C           6.5967   13.1646    0.2682 C.3     1  UNL1        0.0330
      6 O           6.5967   11.7619    0.4558 O.3     1  UNL1       -0.3982
@<TRIPOS>BOND
     1     4     6    1
     2     1     5    1
     3     2     5    1
     4     5     6    1
     5     5     3    1
