@<TRIPOS>MOLECULE
structure_204.xyz
 6 5 0 0 0
SMALL
GASTEIGER

@<TRIPOS>ATOM
      1 H          -0.8971   13.4576    2.0511 H       1  UNL1        0.0521
      2 H           0.8971   13.4576    2.0511 H       1  UNL1        0.0521
      3 H           0.0000   13.5931    3.5874 H       1  UNL1        0.0521
      4 H           0.0000   11.2522    1.8868 H       1  UNL1        0.2090
      5 C           0.0000   13.1149    2.5978 C.3     1  UNL1        0.0330
      6 O           0.0000   11.7121    2.7818 O.3     1  UNL1       -0.3982
@<TRIPOS>BOND
     1     4     6    1
     2     1     5    1
     3     2     5    1
     4     5     6    1
     5     5     3    1
