@<TRIPOS>MOLECULE
structure_171.xyz
 6 5 0 0 0
SMALL
GASTEIGER

@<TRIPOS>ATOM
      1 H           6.1372    0.3108    1.8236 H       1  UNL1        0.0521
      2 H           6.0780    1.6059    0.5925 H       1  UNL1        0.0521
      3 H           5.2703    1.8376    2.1621 H       1  UNL1        0.0521
      4 H           3.8281    0.0662    1.4640 H       1  UNL1        0.2090
      5 C           5.5072    1.0999    1.3810 C.3     1  UNL1        0.0330
      6 O           4.3333    0.5622    0.7762 O.3     1  UNL1       -0.3982
@<TRIPOS>BOND
     1     2     5    1
     2     6     5    1
     3     6     4    1
     4     5     1    1
     5     5     3    1
