@<TRIPOS>MOLECULE
structure_305.xyz
 6 5 0 0 0
SMALL
GASTEIGER

@<TRIPOS>ATOM
      1 H           7.4747    5.2871   -0.8991 H       1  UNL1        0.0521
      2 H           7.4747    5.2871    0.8991 H       1  UNL1        0.0521
      3 H           5.5887    4.0837    0.0000 H       1  UNL1        0.2090
      4 H           6.8516    6.6901    0.0000 H       1  UNL1        0.0521
      5 C           6.9163    5.5959    0.0000 C.3     1  UNL1        0.0330
      6 O           5.5894    5.0796    0.0000 O.3     1  UNL1       -0.3982
@<TRIPOS>BOND
     1     1     5    1
     2     3     6    1
     3     4     5    1
     4     5     6    1
     5     5     2    1
