@<TRIPOS>MOLECULE
structure_39.xyz
 6 5 0 0 0
SMALL
GASTEIGER

@<TRIPOS>ATOM
      1 H           6.9547    2.4914   11.4874 H       1  UNL1        0.0521
      2 H           6.4784    0.8595   12.0345 H       1  UNL1        0.0521
      3 H           5.6250    2.2935   12.6770 H       1  UNL1        0.0521
      4 H           5.1633    2.5909   10.1752 H       1  UNL1        0.2090
      5 C           6.1032    1.8607   11.7820 C.3     1  UNL1        0.0330
      6 O           5.1533    1.7360   10.7153 O.3     1  UNL1       -0.3982
@<TRIPOS>BOND
     1     4     6    1
     2     6     5    1
     3     1     5    1
     4     5     2    1
     5     5     3    1
