@<TRIPOS>MOLECULE
structure_846.xyz
 6 5 0 0 0
SMALL
GASTEIGER

@<TRIPOS>ATOM
      1 H           7.3437    0.1288    2.6578 H       1  UNL1        0.0521
      2 H           7.0637    0.1380    4.4229 H       1  UNL1        0.0521
      3 H           8.7046    0.4137    3.7755 H       1  UNL1        0.0521
      4 H           7.6622    2.4559    4.3603 H       1  UNL1        0.2090
      5 C           7.6317    0.6047    3.6039 C.3     1  UNL1        0.0330
      6 O           7.3548    2.0070    3.5077 O.3     1  UNL1       -0.3982
@<TRIPOS>BOND
     1     1     5    1
     2     6     5    1
     3     6     4    1
     4     5     3    1
     5     5     2    1
