@<TRIPOS>MOLECULE
structure_193.xyz
 6 5 0 0 0
SMALL
GASTEIGER

@<TRIPOS>ATOM
      1 H           2.6678    2.0168    2.8859 H       1  UNL1        0.0521
      2 H           3.6389    3.1650    1.9013 H       1  UNL1        0.0521
      3 H           4.3403    2.4189    3.3645 H       1  UNL1        0.0521
      4 H           4.4423    0.4137    2.2558 H       1  UNL1        0.2090
      5 C           3.6756    2.2487    2.5034 C.3     1  UNL1        0.0330
      6 O           4.1778    1.1929    1.6697 O.3     1  UNL1       -0.3982
@<TRIPOS>BOND
     1     6     4    1
     2     6     5    1
     3     2     5    1
     4     5     1    1
     5     5     3    1
