@<TRIPOS>MOLECULE
structure_881.xyz
 6 5 0 0 0
SMALL
GASTEIGER

@<TRIPOS>ATOM
      1 H           2.3580    5.2478    3.7118 H       1  UNL1        0.0521
      2 H           4.1289    5.4210    3.6704 H       1  UNL1        0.0521
      3 H           3.1407    6.2131    2.4104 H       1  UNL1        0.0521
      4 H           2.4720    3.8975    1.8682 H       1  UNL1        0.2090
      5 C           3.2333    5.3166    3.0466 C.3     1  UNL1        0.0330
      6 O           3.3773    4.1404    2.2449 O.3     1  UNL1       -0.3982
@<TRIPOS>BOND
     1     4     6    1
     2     6     5    1
     3     3     5    1
     4     5     2    1
     5     5     1    1
