@<TRIPOS>MOLECULE
structure_1526.xyz
 6 5 0 0 0
SMALL
GASTEIGER

@<TRIPOS>ATOM
      1 H          -0.6204    3.8983    4.8355 H       1  UNL1        0.0521
      2 H          -0.5726    4.0022    6.6134 H       1  UNL1        0.0521
      3 H           0.7178    4.7664    5.6529 H       1  UNL1        0.0521
      4 H           1.5186    2.6700    5.1272 H       1  UNL1        0.2090
      5 C           0.0462    3.8969    5.7119 C.3     1  UNL1        0.0330
      6 O           0.7692    2.6618    5.8092 O.3     1  UNL1       -0.3982
@<TRIPOS>BOND
     1     1     5    1
     2     4     6    1
     3     3     5    1
     4     5     6    1
     5     5     2    1
