@<TRIPOS>MOLECULE
structure_532.xyz
 6 5 0 0 0
SMALL
GASTEIGER

@<TRIPOS>ATOM
      1 H          12.5854    6.5493    1.8778 H       1  UNL1        0.0521
      2 H          11.6327    5.5972    3.0564 H       1  UNL1        0.0521
      3 H          11.3518    5.3791    1.3088 H       1  UNL1        0.0521
      4 H          10.0733    7.1539    1.2850 H       1  UNL1        0.2090
      5 C          11.5941    6.1161    2.0883 C.3     1  UNL1        0.0330
      6 O          10.5989    7.1485    2.1509 O.3     1  UNL1       -0.3982
@<TRIPOS>BOND
     1     4     6    1
     2     3     5    1
     3     1     5    1
     4     5     6    1
     5     5     2    1
