@<TRIPOS>MOLECULE
structure_22.xyz
 6 5 0 0 0
SMALL
GASTEIGER

@<TRIPOS>ATOM
      1 H          -0.5415    9.5162    0.6201 H       1  UNL1        0.0521
      2 H          -0.6323    7.7289    0.7513 H       1  UNL1        0.0521
      3 H          -0.6638    8.5092   -0.8461 H       1  UNL1        0.0521
      4 H           1.6307    8.4925    0.9295 H       1  UNL1        0.2090
      5 C          -0.2272    8.5655    0.1594 C.3     1  UNL1        0.0330
      6 O           1.1913    8.4788    0.0265 O.3     1  UNL1       -0.3982
@<TRIPOS>BOND
     1     3     5    1
     2     6     5    1
     3     6     4    1
     4     5     1    1
     5     5     2    1
