@<TRIPOS>MOLECULE
structure_1615.xyz
 6 5 0 0 0
SMALL
GASTEIGER

@<TRIPOS>ATOM
      1 H          -0.2135    6.3669    7.3281 H       1  UNL1        0.0521
      2 H           0.9512    7.7108    7.2158 H       1  UNL1        0.0521
      3 H           1.3575    6.2529    8.1780 H       1  UNL1        0.0521
      4 H           2.3510    6.2658    5.9932 H       1  UNL1        0.2090
      5 C           0.8533    6.6160    7.2681 C.3     1  UNL1        0.0330
      6 O           1.3807    6.0024    6.0828 O.3     1  UNL1       -0.3982
@<TRIPOS>BOND
     1     4     6    1
     2     6     5    1
     3     2     5    1
     4     5     1    1
     5     5     3    1
