@<TRIPOS>MOLECULE
structure_232.xyz
 6 5 0 0 0
SMALL
GASTEIGER

@<TRIPOS>ATOM
      1 H           4.1565    4.6192   -0.3501 H       1  UNL1        0.0521
      2 H           3.2852    3.3472    1.1975 H       1  UNL1        0.2090
      3 H           2.5331    4.9483   -1.0124 H       1  UNL1        0.0521
      4 H           3.1118    5.8613    0.4130 H       1  UNL1        0.0521
      5 C           3.1208    4.8794   -0.0863 C.3     1  UNL1        0.0330
      6 O           2.5399    3.8799    0.7645 O.3     1  UNL1       -0.3982
@<TRIPOS>BOND
     1     3     5    1
     2     1     5    1
     3     5     4    1
     4     5     6    1
     5     6     2    1
