@<TRIPOS>MOLECULE
structure_1968.xyz
 6 5 0 0 0
SMALL
GASTEIGER

@<TRIPOS>ATOM
      1 H           4.7468   21.4308    3.9189 H       1  UNL1        0.0521
      2 H           3.0479   19.9767    3.1988 H       1  UNL1        0.2090
      3 H           3.3943   22.3447    3.1691 H       1  UNL1        0.0521
      4 H           3.5196   22.2310    4.9449 H       1  UNL1        0.0521
      5 C           3.6762   21.6831    4.0056 C.3     1  UNL1        0.0330
      6 O           2.8492   20.5155    4.0357 O.3     1  UNL1       -0.3982
@<TRIPOS>BOND
     1     3     5    1
     2     2     6    1
     3     1     5    1
     4     5     6    1
     5     5     4    1
