@<TRIPOS>MOLECULE
structure_999.xyz
 6 5 0 0 0
SMALL
GASTEIGER

@<TRIPOS>ATOM
      1 H          -0.2092   -0.2080    3.1507 H       1  UNL1        0.0521
      2 H          -0.4479    0.0632    5.5507 H       1  UNL1        0.2090
      3 H           1.3183    0.6937    3.3919 H       1  UNL1        0.0521
      4 H           1.1027   -0.9138    4.1430 H       1  UNL1        0.0521
      5 C           0.5902    0.0264    3.8749 C.3     1  UNL1        0.0330
      6 O           0.0906    0.7037    5.0297 O.3     1  UNL1       -0.3982
@<TRIPOS>BOND
     1     1     5    1
     2     3     5    1
     3     5     4    1
     4     5     6    1
     5     6     2    1
