@<TRIPOS>MOLECULE
structure_944.xyz
 6 5 0 0 0
SMALL
GASTEIGER

@<TRIPOS>ATOM
      1 H           2.2942    4.8781    1.2179 H       1  UNL1        0.0521
      2 H           3.5067    4.6854   -0.0863 H       1  UNL1        0.0521
      3 H           4.2037    4.7680    2.7193 H       1  UNL1        0.2090
      4 H           3.5420    6.1415    0.9405 H       1  UNL1        0.0521
      5 C           3.3436    5.0578    0.9319 C.3     1  UNL1        0.0330
      6 O           4.2589    4.3669    1.7983 O.3     1  UNL1       -0.3982
@<TRIPOS>BOND
     1     2     5    1
     2     5     4    1
     3     5     1    1
     4     5     6    1
     5     6     3    1
