@<TRIPOS>MOLECULE
structure_1550.xyz
 6 5 0 0 0
SMALL
GASTEIGER

@<TRIPOS>ATOM
      1 H          13.3053    1.8321    1.1156 H       1  UNL1        0.0521
      2 H          12.8912    0.1125    1.1817 H       1  UNL1        0.0521
      3 H          11.9267    1.2895    2.1381 H       1  UNL1        0.0521
      4 H          11.0482    0.4839   -0.0425 H       1  UNL1        0.2090
      5 C          12.4701    1.1279    1.1961 C.3     1  UNL1        0.0330
      6 O          11.5999    1.3185    0.0516 O.3     1  UNL1       -0.3982
@<TRIPOS>BOND
     1     4     6    1
     2     6     5    1
     3     1     5    1
     4     2     5    1
     5     5     3    1
