@<TRIPOS>MOLECULE
structure_722.xyz
 6 5 0 0 0
SMALL
GASTEIGER

@<TRIPOS>ATOM
      1 H           2.1345    7.3448    3.3872 H       1  UNL1        0.0521
      2 H           0.3010    5.5316    4.6864 H       1  UNL1        0.2090
      3 H           0.5284    7.8971    3.9463 H       1  UNL1        0.0521
      4 H           0.6560    6.6139    2.7122 H       1  UNL1        0.0521
      5 C           1.1148    7.0194    3.6278 C.3     1  UNL1        0.0330
      6 O           1.1780    6.0356    4.6667 O.3     1  UNL1       -0.3982
@<TRIPOS>BOND
     1     4     5    1
     2     1     5    1
     3     5     3    1
     4     5     6    1
     5     6     2    1
