@<TRIPOS>MOLECULE
structure_970.xyz
 6 5 0 0 0
SMALL
GASTEIGER

@<TRIPOS>ATOM
      1 H           1.9880    2.9562    2.8902 H       1  UNL1        0.2090
      2 H           3.9192    3.0692    0.7407 H       1  UNL1        0.0521
      3 H           3.8351    1.7523    1.9460 H       1  UNL1        0.0521
      4 H           4.2405    3.4184    2.4573 H       1  UNL1        0.0521
      5 C           3.6266    2.8189    1.7675 C.3     1  UNL1        0.0330
      6 O           2.2275    3.1007    1.9227 O.3     1  UNL1       -0.3982
@<TRIPOS>BOND
     1     2     5    1
     2     5     6    1
     3     5     3    1
     4     5     4    1
     5     6     1    1
