@<TRIPOS>MOLECULE
structure_945.xyz
 6 5 0 0 0
SMALL
GASTEIGER

@<TRIPOS>ATOM
      1 H           1.2687    5.9998    2.6109 H       1  UNL1        0.0521
      2 H           3.0462    5.9730    2.6564 H       1  UNL1        0.0521
      3 H           2.9505    3.9204    1.4991 H       1  UNL1        0.2090
      4 H           2.1953    6.1550    1.0907 H       1  UNL1        0.0521
      5 C           2.1646    5.6618    2.0761 C.3     1  UNL1        0.0330
      6 O           2.1019    4.2345    1.9540 O.3     1  UNL1       -0.3982
@<TRIPOS>BOND
     1     4     5    1
     2     3     6    1
     3     6     5    1
     4     5     1    1
     5     5     2    1
