@<TRIPOS>MOLECULE
structure_420.xyz
 6 5 0 0 0
SMALL
GASTEIGER

@<TRIPOS>ATOM
      1 H          -0.1106    3.6104    2.2981 H       1  UNL1        0.0521
      2 H          -0.4311    1.8912    1.9376 H       1  UNL1        0.0521
      3 H          -0.4667    3.0944    0.6233 H       1  UNL1        0.0521
      4 H           1.8797    2.1819    2.0531 H       1  UNL1        0.2090
      5 C           0.0397    2.8089    1.5542 C.3     1  UNL1        0.0330
      6 O           1.4255    2.6074    1.2636 O.3     1  UNL1       -0.3982
@<TRIPOS>BOND
     1     3     5    1
     2     6     5    1
     3     6     4    1
     4     5     2    1
     5     5     1    1
