@<TRIPOS>MOLECULE
structure_990.xyz
 6 5 0 0 0
SMALL
GASTEIGER

@<TRIPOS>ATOM
      1 H          -0.9409    1.1046    4.4444 H       1  UNL1        0.2090
      2 H          -0.7043    3.2789    5.2636 H       1  UNL1        0.0521
      3 H           1.0021    3.2293    4.7441 H       1  UNL1        0.0521
      4 H           0.4624    2.2051    6.1013 H       1  UNL1        0.0521
      5 C           0.1698    2.6242    5.1263 C.3     1  UNL1        0.0330
      6 O          -0.0916    1.5823    4.1739 O.3     1  UNL1       -0.3982
@<TRIPOS>BOND
     1     6     1    1
     2     6     5    1
     3     3     5    1
     4     5     2    1
     5     5     4    1
