@<TRIPOS>MOLECULE
structure_58.xyz
 6 5 0 0 0
SMALL
GASTEIGER

@<TRIPOS>ATOM
      1 H           0.8303    6.2297    2.1085 H       1  UNL1        0.0521
      2 H           1.1651    3.7261    1.7304 H       1  UNL1        0.2090
      3 H           1.9501    5.8868    3.4581 H       1  UNL1        0.0521
      4 H           2.4608    5.5714    1.7797 H       1  UNL1        0.0521
      5 C           1.6092    5.5390    2.4746 C.3     1  UNL1        0.0330
      6 O           1.0935    4.2103    2.6104 O.3     1  UNL1       -0.3982
@<TRIPOS>BOND
     1     2     6    1
     2     4     5    1
     3     1     5    1
     4     5     6    1
     5     5     3    1
