@<TRIPOS>MOLECULE
structure_987.xyz
 6 5 0 0 0
SMALL
GASTEIGER

@<TRIPOS>ATOM
      1 H           0.8146    1.6382    4.4881 H       1  UNL1        0.0521
      2 H           0.8587    2.2499    7.2879 H       1  UNL1        0.2090
      3 H           1.1654    0.4676    5.7822 H       1  UNL1        0.0521
      4 H           2.3266    1.7936    5.4279 H       1  UNL1        0.0521
      5 C           1.2577    1.5257    5.4851 C.3     1  UNL1        0.0330
      6 O           0.5382    2.3943    6.3719 O.3     1  UNL1       -0.3982
@<TRIPOS>BOND
     1     1     5    1
     2     4     5    1
     3     5     3    1
     4     5     6    1
     5     6     2    1
