@<TRIPOS>MOLECULE
structure_947.xyz
 6 5 0 0 0
SMALL
GASTEIGER

@<TRIPOS>ATOM
      1 H           0.0334    6.7576    4.6671 H       1  UNL1        0.2090
      2 H           1.4420    4.2285    4.7947 H       1  UNL1        0.0521
      3 H           2.1310    5.7406    4.1348 H       1  UNL1        0.0521
      4 H           1.7316    5.6211    5.8751 H       1  UNL1        0.0521
      5 C           1.4174    5.3236    4.8620 C.3     1  UNL1        0.0330
      6 O           0.0727    5.7471    4.5955 O.3     1  UNL1       -0.3982
@<TRIPOS>BOND
     1     3     5    1
     2     6     1    1
     3     6     5    1
     4     2     5    1
     5     5     4    1
