@<TRIPOS>MOLECULE
structure_640.xyz
 6 5 0 0 0
SMALL
GASTEIGER

@<TRIPOS>ATOM
      1 H           4.5834    1.5057    1.1269 H       1  UNL1        0.0521
      2 H           3.6573    0.2396    1.9901 H       1  UNL1        0.0521
      3 H           3.6666    0.2647    0.2113 H       1  UNL1        0.0521
      4 H           2.4445    2.2559    0.3108 H       1  UNL1        0.2090
      5 C           3.6641    0.8971    1.1120 C.3     1  UNL1        0.0330
      6 O           2.4796    1.7107    1.1615 O.3     1  UNL1       -0.3982
@<TRIPOS>BOND
     1     3     5    1
     2     4     6    1
     3     5     1    1
     4     5     6    1
     5     5     2    1
