@<TRIPOS>MOLECULE
structure_925.xyz
 6 5 0 0 0
SMALL
GASTEIGER

@<TRIPOS>ATOM
      1 H           2.2864    0.3419    5.1966 H       1  UNL1        0.2090
      2 H           3.7175    2.8346    4.8201 H       1  UNL1        0.0521
      3 H           4.4862    1.2770    5.2345 H       1  UNL1        0.0521
      4 H           3.7040    1.4958    3.6380 H       1  UNL1        0.0521
      5 C           3.6399    1.7462    4.7079 C.3     1  UNL1        0.0330
      6 O           2.3747    1.3447    5.2590 O.3     1  UNL1       -0.3982
@<TRIPOS>BOND
     1     4     5    1
     2     5     2    1
     3     5     3    1
     4     5     6    1
     5     1     6    1
