@<TRIPOS>MOLECULE
structure_135.xyz
 6 5 0 0 0
SMALL
GASTEIGER

@<TRIPOS>ATOM
      1 H           3.8434   -0.4654    4.9321 H       1  UNL1        0.0521
      2 H           4.8803    0.2401    6.2002 H       1  UNL1        0.0521
      3 H           3.7507   -1.0883    6.6008 H       1  UNL1        0.0521
      4 H           3.0710    1.2723    7.0987 H       1  UNL1        0.2090
      5 C           3.8846   -0.1791    5.9905 C.3     1  UNL1        0.0330
      6 O           2.8483    0.7748    6.2474 O.3     1  UNL1       -0.3982
@<TRIPOS>BOND
     1     1     5    1
     2     5     2    1
     3     5     6    1
     4     5     3    1
     5     6     4    1
