@<TRIPOS>MOLECULE
structure_2040.xyz
 6 5 0 0 0
SMALL
GASTEIGER

@<TRIPOS>ATOM
      1 H          -1.7166   12.3690    5.6604 H       1  UNL1        0.0521
      2 H          -2.3894   10.7918    5.1688 H       1  UNL1        0.0521
      3 H          -0.1192   10.9054    6.9307 H       1  UNL1        0.2090
      4 H          -2.3637   11.2430    6.8927 H       1  UNL1        0.0521
      5 C          -1.8098   11.3089    5.9450 C.3     1  UNL1        0.0330
      6 O          -0.5198   10.6841    6.0339 O.3     1  UNL1       -0.3982
@<TRIPOS>BOND
     1     2     5    1
     2     1     5    1
     3     5     6    1
     4     5     4    1
     5     6     3    1
