@<TRIPOS>MOLECULE
structure_965.xyz
 6 5 0 0 0
SMALL
GASTEIGER

@<TRIPOS>ATOM
      1 H           1.3605    1.2511    0.1999 H       1  UNL1        0.0521
      2 H           1.4982    2.0859    2.4128 H       1  UNL1        0.2090
      3 H           2.1518    2.8561    0.2615 H       1  UNL1        0.0521
      4 H           3.1338    1.3704    0.1427 H       1  UNL1        0.0521
      5 C           2.2300    1.8066    0.5880 C.3     1  UNL1        0.0330
      6 O           2.3314    1.6836    2.0063 O.3     1  UNL1       -0.3982
@<TRIPOS>BOND
     1     4     5    1
     2     1     5    1
     3     3     5    1
     4     5     6    1
     5     6     2    1
