@<TRIPOS>MOLECULE
structure_115.xyz
 6 5 0 0 0
SMALL
GASTEIGER

@<TRIPOS>ATOM
      1 H          10.4311    0.5845    3.6141 H       1  UNL1        0.0521
      2 H          10.3446    2.3563    3.5317 H       1  UNL1        0.0521
      3 H           9.1472    1.3735    2.6418 H       1  UNL1        0.0521
      4 H           8.3694    0.6526    4.7951 H       1  UNL1        0.2090
      5 C           9.7396    1.4410    3.5678 C.3     1  UNL1        0.0330
      6 O           8.9164    1.5018    4.7384 O.3     1  UNL1       -0.3982
@<TRIPOS>BOND
     1     3     5    1
     2     2     5    1
     3     5     1    1
     4     5     6    1
     5     6     4    1
