@<TRIPOS>MOLECULE
structure_2122.xyz
 6 5 0 0 0
SMALL
GASTEIGER

@<TRIPOS>ATOM
      1 H           7.1499    3.7327    1.5193 H       1  UNL1        0.0521
      2 H           6.6887    2.0864    2.0315 H       1  UNL1        0.0521
      3 H           5.8195    3.5015    2.7012 H       1  UNL1        0.0521
      4 H           5.3716    3.8333    0.1924 H       1  UNL1        0.2090
      5 C           6.3034    3.0888    1.7997 C.3     1  UNL1        0.0330
      6 O           5.3559    2.9762    0.7290 O.3     1  UNL1       -0.3982
@<TRIPOS>BOND
     1     4     6    1
     2     6     5    1
     3     1     5    1
     4     5     2    1
     5     5     3    1
