@<TRIPOS>MOLECULE
structure_269.xyz
 6 5 0 0 0
SMALL
GASTEIGER

@<TRIPOS>ATOM
      1 H           6.5396    5.8865    1.7926 H       1  UNL1        0.0521
      2 H           7.9733    5.9180    0.7292 H       1  UNL1        0.0521
      3 H           6.6717    4.7314    0.4303 H       1  UNL1        0.0521
      4 H           8.5774    3.8212    1.6579 H       1  UNL1        0.2090
      5 C           7.2334    5.2630    1.2139 C.3     1  UNL1        0.0330
      6 O           7.8604    4.3573    2.1301 O.3     1  UNL1       -0.3982
@<TRIPOS>BOND
     1     3     5    1
     2     2     5    1
     3     5     1    1
     4     5     6    1
     5     4     6    1
