@<TRIPOS>MOLECULE
structure_1677.xyz
 6 5 0 0 0
SMALL
GASTEIGER

@<TRIPOS>ATOM
      1 H           0.1992   11.8394    1.4708 H       1  UNL1        0.0521
      2 H          -0.7340   11.9430    2.9868 H       1  UNL1        0.0521
      3 H           0.6926   10.8607    2.8904 H       1  UNL1        0.0521
      4 H           0.6650   13.4208    3.7292 H       1  UNL1        0.2090
      5 C           0.2761   11.8283    2.5676 C.3     1  UNL1        0.0330
      6 O           1.1288   12.8994    2.9967 O.3     1  UNL1       -0.3982
@<TRIPOS>BOND
     1     1     5    1
     2     5     3    1
     3     5     2    1
     4     5     6    1
     5     6     4    1
