@<TRIPOS>MOLECULE
structure_2249.xyz
 6 5 0 0 0
SMALL
GASTEIGER

@<TRIPOS>ATOM
      1 H          13.4509    7.8693    4.6135 H       1  UNL1        0.0521
      2 H          12.6016    9.0149    3.5397 H       1  UNL1        0.0521
      3 H          12.3964    9.1413    5.3041 H       1  UNL1        0.0521
      4 H          11.2906    7.0489    5.1944 H       1  UNL1        0.2090
      5 C          12.5139    8.4345    4.4669 C.3     1  UNL1        0.0330
      6 O          11.3796    7.5785    4.3422 O.3     1  UNL1       -0.3982
@<TRIPOS>BOND
     1     2     5    1
     2     6     5    1
     3     6     4    1
     4     5     1    1
     5     5     3    1
