@<TRIPOS>MOLECULE
structure_273.xyz
 6 5 0 0 0
SMALL
GASTEIGER

@<TRIPOS>ATOM
      1 H           0.6998    4.9700    2.3927 H       1  UNL1        0.2090
      2 H          -1.4406    5.6494    1.5789 H       1  UNL1        0.0521
      3 H          -0.5667    6.9022    0.6505 H       1  UNL1        0.0521
      4 H          -0.5670    6.9628    2.4296 H       1  UNL1        0.0521
      5 C          -0.5426    6.2885    1.5600 C.3     1  UNL1        0.0330
      6 O           0.6673    5.5118    1.5397 O.3     1  UNL1       -0.3982
@<TRIPOS>BOND
     1     3     5    1
     2     6     5    1
     3     6     1    1
     4     5     2    1
     5     5     4    1
