@<TRIPOS>MOLECULE
structure_967.xyz
 6 5 0 0 0
SMALL
GASTEIGER

@<TRIPOS>ATOM
      1 H           1.1889    3.5862    0.0569 H       1  UNL1        0.2090
      2 H           0.7570    4.9684    1.9452 H       1  UNL1        0.0521
      3 H           1.7913    3.8411    2.8705 H       1  UNL1        0.0521
      4 H           2.4997    4.8186    1.5568 H       1  UNL1        0.0521
      5 C           1.6020    4.2652    1.8772 C.3     1  UNL1        0.0330
      6 O           1.3207    3.1831    0.9769 O.3     1  UNL1       -0.3982
@<TRIPOS>BOND
     1     1     6    1
     2     6     5    1
     3     4     5    1
     4     5     2    1
     5     5     3    1
