@<TRIPOS>MOLECULE
structure_474.xyz
 6 5 0 0 0
SMALL
GASTEIGER

@<TRIPOS>ATOM
      1 H           5.3371    7.6909    5.4557 H       1  UNL1        0.2090
      2 H           7.4063    6.7299    5.9376 H       1  UNL1        0.0521
      3 H           6.7261    5.8780    4.5081 H       1  UNL1        0.0521
      4 H           6.5839    5.1738    6.1449 H       1  UNL1        0.0521
      5 C           6.5723    6.1103    5.5737 C.3     1  UNL1        0.0330
      6 O           5.3133    6.7531    5.8087 O.3     1  UNL1       -0.3982
@<TRIPOS>BOND
     1     3     5    1
     2     1     6    1
     3     5     6    1
     4     5     2    1
     5     5     4    1
