@<TRIPOS>MOLECULE
structure_969.xyz
 6 5 0 0 0
SMALL
GASTEIGER

@<TRIPOS>ATOM
      1 H           6.2218    5.6436    1.2412 H       1  UNL1        0.2090
      2 H           5.2922    3.9399    2.7671 H       1  UNL1        0.0521
      3 H           4.4208    3.3873    1.3117 H       1  UNL1        0.0521
      4 H           4.1153    5.0223    1.9607 H       1  UNL1        0.0521
      5 C           4.8862    4.2548    1.7930 C.3     1  UNL1        0.0330
      6 O           5.9294    4.7305    0.9295 O.3     1  UNL1       -0.3982
@<TRIPOS>BOND
     1     6     1    1
     2     6     5    1
     3     3     5    1
     4     5     4    1
     5     5     2    1
