@<TRIPOS>MOLECULE
structure_951.xyz
 6 5 0 0 0
SMALL
GASTEIGER

@<TRIPOS>ATOM
      1 H           1.6704    5.7999    0.9269 H       1  UNL1        0.0521
      2 H           1.6724    4.0311    1.1611 H       1  UNL1        0.0521
      3 H           3.5435    4.3113    2.5433 H       1  UNL1        0.2090
      4 H           3.0036    4.8215    0.2516 H       1  UNL1        0.0521
      5 C           2.3109    4.9269    1.1037 C.3     1  UNL1        0.0330
      6 O           3.0238    5.1450    2.3218 O.3     1  UNL1       -0.3982
@<TRIPOS>BOND
     1     4     5    1
     2     1     5    1
     3     5     2    1
     4     5     6    1
     5     6     3    1
