@<TRIPOS>MOLECULE
structure_2079.xyz
 6 5 0 0 0
SMALL
GASTEIGER

@<TRIPOS>ATOM
      1 H           3.2972    6.9265    4.9435 H       1  UNL1        0.0521
      2 H           1.8217    5.8764    3.6075 H       1  UNL1        0.2090
      3 H           2.0106    8.0344    5.5038 H       1  UNL1        0.0521
      4 H           2.0640    6.3543    6.1133 H       1  UNL1        0.0521
      5 C           2.2383    6.9944    5.2329 C.3     1  UNL1        0.0330
      6 O           1.3787    6.6071    4.1559 O.3     1  UNL1       -0.3982
@<TRIPOS>BOND
     1     2     6    1
     2     6     5    1
     3     1     5    1
     4     5     3    1
     5     5     4    1
