@<TRIPOS>MOLECULE
structure_625.xyz
 6 5 0 0 0
SMALL
GASTEIGER

@<TRIPOS>ATOM
      1 H           4.9418    5.8718    0.2679 H       1  UNL1        0.0521
      2 H           4.9418    4.0786    0.2679 H       1  UNL1        0.0521
      3 H           7.1452    4.9752    0.2686 H       1  UNL1        0.2090
      4 H           4.6913    4.9752    1.7911 H       1  UNL1        0.0521
      5 C           5.2403    4.9752    0.8393 C.3     1  UNL1        0.0330
      6 O           6.6274    4.9752    1.1284 O.3     1  UNL1       -0.3982
@<TRIPOS>BOND
     1     1     5    1
     2     2     5    1
     3     3     6    1
     4     5     6    1
     5     5     4    1
