@<TRIPOS>MOLECULE
structure_249.xyz
 6 5 0 0 0
SMALL
GASTEIGER

@<TRIPOS>ATOM
      1 H           2.3517    6.6608    0.9079 H       1  UNL1        0.0521
      2 H           1.2172    7.9733    0.4683 H       1  UNL1        0.0521
      3 H           3.6039    9.1160    0.2499 H       1  UNL1        0.2090
      4 H           2.4859    7.4739   -0.6809 H       1  UNL1        0.0521
      5 C           2.2577    7.6224    0.3841 C.3     1  UNL1        0.0330
      6 O           3.1683    8.5608    0.9775 O.3     1  UNL1       -0.3982
@<TRIPOS>BOND
     1     4     5    1
     2     3     6    1
     3     5     2    1
     4     5     1    1
     5     5     6    1
