@<TRIPOS>MOLECULE
structure_2333.xyz
 6 5 0 0 0
SMALL
GASTEIGER

@<TRIPOS>ATOM
      1 H          -1.0094   13.6454    1.9874 H       1  UNL1        0.0521
      2 H           0.3827   14.3133    1.0799 H       1  UNL1        0.0521
      3 H           0.7351   11.7893    0.6851 H       1  UNL1        0.2090
      4 H           0.6537   13.1641    2.4293 H       1  UNL1        0.0521
      5 C          -0.0109   13.4170    1.5901 C.3     1  UNL1        0.0330
      6 O          -0.1237   12.3243    0.6715 O.3     1  UNL1       -0.3982
@<TRIPOS>BOND
     1     6     3    1
     2     6     5    1
     3     2     5    1
     4     5     1    1
     5     5     4    1
