@<TRIPOS>MOLECULE
structure_142.xyz
 6 5 0 0 0
SMALL
GASTEIGER

@<TRIPOS>ATOM
      1 H           1.9100    0.0873   -0.6233 H       1  UNL1        0.0521
      2 H           4.0998   -0.4125   -0.1148 H       1  UNL1        0.2090
      3 H           1.8590    1.0904    0.8537 H       1  UNL1        0.0521
      4 H           2.8243    1.6263   -0.5523 H       1  UNL1        0.0521
      5 C           2.4994    0.7504    0.0299 C.3     1  UNL1        0.0330
      6 O           3.6102    0.0597    0.6046 O.3     1  UNL1       -0.3982
@<TRIPOS>BOND
     1     1     5    1
     2     4     5    1
     3     2     6    1
     4     5     6    1
     5     5     3    1
