@<TRIPOS>MOLECULE
structure_255.xyz
 6 5 0 0 0
SMALL
GASTEIGER

@<TRIPOS>ATOM
      1 H           0.9918    5.2479    3.5983 H       1  UNL1        0.0521
      2 H           3.0230    6.3937    4.0963 H       1  UNL1        0.2090
      3 H           1.5983    6.2236    2.2163 H       1  UNL1        0.0521
      4 H           1.8819    4.4652    2.2634 H       1  UNL1        0.0521
      5 C           1.8161    5.3701    2.8784 C.3     1  UNL1        0.0330
      6 O           3.0652    5.5394    3.5636 O.3     1  UNL1       -0.3982
@<TRIPOS>BOND
     1     3     5    1
     2     4     5    1
     3     5     6    1
     4     5     1    1
     5     6     2    1
