@<TRIPOS>MOLECULE
structure_1831.xyz
 6 5 0 0 0
SMALL
GASTEIGER

@<TRIPOS>ATOM
      1 H           2.4353    2.5757   -0.4900 H       1  UNL1        0.0521
      2 H           1.8007    1.4287    0.7182 H       1  UNL1        0.0521
      3 H           1.6783    3.1695    2.2286 H       1  UNL1        0.2090
      4 H           3.4517    2.1054    0.9101 H       1  UNL1        0.0521
      5 C           2.4236    2.3276    0.5789 C.3     1  UNL1        0.0330
      6 O           1.8689    3.4434    1.2806 O.3     1  UNL1       -0.3982
@<TRIPOS>BOND
     1     1     5    1
     2     5     2    1
     3     5     4    1
     4     5     6    1
     5     6     3    1
