@<TRIPOS>MOLECULE
structure_626.xyz
 6 5 0 0 0
SMALL
GASTEIGER

@<TRIPOS>ATOM
      1 H           4.9434    5.8929    0.2507 H       1  UNL1        0.0521
      2 H           4.9434    4.0997    0.2507 H       1  UNL1        0.0521
      3 H           7.1471    4.9963    0.2370 H       1  UNL1        0.2090
      4 H           4.7026    4.9963    1.7753 H       1  UNL1        0.0521
      5 C           5.2456    4.9963    0.8201 C.3     1  UNL1        0.0330
      6 O           6.6348    4.9963    1.1000 O.3     1  UNL1       -0.3982
@<TRIPOS>BOND
     1     3     6    1
     2     1     5    1
     3     2     5    1
     4     5     6    1
     5     5     4    1
