@<TRIPOS>MOLECULE
structure_997.xyz
 6 5 0 0 0
SMALL
GASTEIGER

@<TRIPOS>ATOM
      1 H           2.6448    6.4159    2.8510 H       1  UNL1        0.2090
      2 H           4.5728    6.6162    0.7049 H       1  UNL1        0.0521
      3 H           4.4832    5.2442    1.8461 H       1  UNL1        0.0521
      4 H           4.8995    6.8813    2.4365 H       1  UNL1        0.0521
      5 C           4.2813    6.3194    1.7193 C.3     1  UNL1        0.0330
      6 O           2.8834    6.6005    1.8905 O.3     1  UNL1       -0.3982
@<TRIPOS>BOND
     1     2     5    1
     2     5     3    1
     3     5     6    1
     4     5     4    1
     5     6     1    1
