@<TRIPOS>MOLECULE
structure_1965.xyz
 6 5 0 0 0
SMALL
GASTEIGER

@<TRIPOS>ATOM
      1 H           0.2258   16.6262    3.3453 H       1  UNL1        0.2090
      2 H           2.1111   15.2877    3.8722 H       1  UNL1        0.0521
      3 H           2.5323   16.5360    5.0825 H       1  UNL1        0.0521
      4 H           2.5781   16.9270    3.3418 H       1  UNL1        0.0521
      5 C           2.0394   16.3632    4.1173 C.3     1  UNL1        0.0330
      6 O           0.6801   16.7907    4.2275 O.3     1  UNL1       -0.3982
@<TRIPOS>BOND
     1     4     5    1
     2     1     6    1
     3     2     5    1
     4     5     6    1
     5     5     3    1
