@<TRIPOS>MOLECULE
structure_198.xyz
 6 5 0 0 0
SMALL
GASTEIGER

@<TRIPOS>ATOM
      1 H           8.2501    9.5570    2.7143 H       1  UNL1        0.0521
      2 H           6.6518    9.3447    3.4662 H       1  UNL1        0.0521
      3 H           5.8694    8.7943    1.2514 H       1  UNL1        0.2090
      4 H           7.4903    7.9381    2.7427 H       1  UNL1        0.0521
      5 C           7.2983    9.0166    2.6374 C.3     1  UNL1        0.0330
      6 O           6.7277    9.3136    1.3540 O.3     1  UNL1       -0.3982
@<TRIPOS>BOND
     1     3     6    1
     2     6     5    1
     3     5     1    1
     4     5     4    1
     5     5     2    1
