@<TRIPOS>MOLECULE
structure_1845.xyz
 6 5 0 0 0
SMALL
GASTEIGER

@<TRIPOS>ATOM
      1 H          -4.0835    2.9104    8.3218 H       1  UNL1        0.0521
      2 H          -2.6410    2.5335    6.6433 H       1  UNL1        0.2090
      3 H          -5.1486    2.8055    6.8794 H       1  UNL1        0.0521
      4 H          -4.6482    4.3924    7.5155 H       1  UNL1        0.0521
      5 C          -4.3190    3.3588    7.3458 C.3     1  UNL1        0.0330
      6 O          -3.1683    3.3823    6.4840 O.3     1  UNL1       -0.3982
@<TRIPOS>BOND
     1     6     2    1
     2     6     5    1
     3     3     5    1
     4     5     4    1
     5     5     1    1
