@<TRIPOS>MOLECULE
structure_932.xyz
 6 5 0 0 0
SMALL
GASTEIGER

@<TRIPOS>ATOM
      1 H          -0.7508   -0.8114    5.8164 H       1  UNL1        0.0521
      2 H          -1.3260    1.0074    4.3402 H       1  UNL1        0.2090
      3 H           0.1067   -1.5055    4.4115 H       1  UNL1        0.0521
      4 H           0.6734    0.0307    5.1163 H       1  UNL1        0.0521
      5 C          -0.2208   -0.5708    4.8821 C.3     1  UNL1        0.0330
      6 O          -1.0891    0.1043    3.9602 O.3     1  UNL1       -0.3982
@<TRIPOS>BOND
     1     6     2    1
     2     6     5    1
     3     3     5    1
     4     5     4    1
     5     5     1    1
