@<TRIPOS>MOLECULE
structure_68.xyz
 6 5 0 0 0
SMALL
GASTEIGER

@<TRIPOS>ATOM
      1 H           6.4868    9.1057    4.2245 H       1  UNL1        0.0521
      2 H           4.6659    7.6690    3.6694 H       1  UNL1        0.2090
      3 H           5.3388    9.9661    5.2879 H       1  UNL1        0.0521
      4 H           5.0989    9.9950    3.5190 H       1  UNL1        0.0521
      5 C           5.4246    9.3702    4.3689 C.3     1  UNL1        0.0330
      6 O           4.5963    8.2240    4.5069 O.3     1  UNL1       -0.3982
@<TRIPOS>BOND
     1     4     5    1
     2     2     6    1
     3     1     5    1
     4     5     6    1
     5     5     3    1
