@<TRIPOS>MOLECULE
structure_571.xyz
 6 5 0 0 0
SMALL
GASTEIGER

@<TRIPOS>ATOM
      1 H           2.2078   10.2521    1.9495 H       1  UNL1        0.0521
      2 H           1.8359   10.1663    0.2043 H       1  UNL1        0.0521
      3 H           3.5090    9.9152    0.7724 H       1  UNL1        0.0521
      4 H           2.4565    7.8576    0.3360 H       1  UNL1        0.2090
      5 C           2.4475    9.7349    1.0120 C.3     1  UNL1        0.0330
      6 O           2.1767    8.3384    1.1791 O.3     1  UNL1       -0.3982
@<TRIPOS>BOND
     1     2     5    1
     2     4     6    1
     3     3     5    1
     4     5     6    1
     5     5     1    1
