@<TRIPOS>MOLECULE
structure_922.xyz
 6 5 0 0 0
SMALL
GASTEIGER

@<TRIPOS>ATOM
      1 H           1.6302    5.2014    1.4361 H       1  UNL1        0.0521
      2 H           2.5194    3.6488    1.3265 H       1  UNL1        0.0521
      3 H           3.3186    5.1071    3.0631 H       1  UNL1        0.2090
      4 H           2.9064    4.9795    0.2020 H       1  UNL1        0.0521
      5 C           2.6103    4.7407    1.2305 C.3     1  UNL1        0.0330
      6 O           3.6289    5.2405    2.1151 O.3     1  UNL1       -0.3982
@<TRIPOS>BOND
     1     4     5    1
     2     5     2    1
     3     5     1    1
     4     5     6    1
     5     6     3    1
