@<TRIPOS>MOLECULE
structure_19.xyz
 6 5 0 0 0
SMALL
GASTEIGER

@<TRIPOS>ATOM
      1 H          12.9419    2.8749    2.4761 H       1  UNL1        0.0521
      2 H          12.1138    4.2558    3.2589 H       1  UNL1        0.0521
      3 H          11.5892    2.5900    3.6177 H       1  UNL1        0.0521
      4 H          10.4943    2.4993    1.7016 H       1  UNL1        0.2090
      5 C          11.9684    3.2562    2.8292 C.3     1  UNL1        0.0330
      6 O          11.0407    3.3507    1.7419 O.3     1  UNL1       -0.3982
@<TRIPOS>BOND
     1     4     6    1
     2     6     5    1
     3     1     5    1
     4     5     2    1
     5     5     3    1
