@<TRIPOS>MOLECULE
structure_335.xyz
 6 5 0 0 0
SMALL
GASTEIGER

@<TRIPOS>ATOM
      1 H          13.6335    3.7949    2.5420 H       1  UNL1        0.0521
      2 H          13.6335    3.7949    0.7478 H       1  UNL1        0.0521
      3 H          13.7427    2.2570    1.6449 H       1  UNL1        0.0521
      4 H          11.4260    3.9913    1.6449 H       1  UNL1        0.2090
      5 C          13.2814    3.2542    1.6449 C.3     1  UNL1        0.0330
      6 O          11.8761    3.0914    1.6449 O.3     1  UNL1       -0.3982
@<TRIPOS>BOND
     1     2     5    1
     2     3     5    1
     3     4     6    1
     4     5     6    1
     5     5     1    1
