@<TRIPOS>MOLECULE
structure_1994.xyz
 6 5 0 0 0
SMALL
GASTEIGER

@<TRIPOS>ATOM
      1 H          -0.0098    4.7119    4.0540 H       1  UNL1        0.0521
      2 H           1.1937    6.8352    3.4277 H       1  UNL1        0.2090
      3 H           1.6895    4.6366    3.4679 H       1  UNL1        0.0521
      4 H           1.3549    4.6043    5.2219 H       1  UNL1        0.0521
      5 C           1.0281    5.0157    4.2597 C.3     1  UNL1        0.0330
      6 O           1.1345    6.4467    4.3496 O.3     1  UNL1       -0.3982
@<TRIPOS>BOND
     1     2     6    1
     2     3     5    1
     3     1     5    1
     4     5     6    1
     5     5     4    1
