@<TRIPOS>MOLECULE
structure_2049.xyz
 6 5 0 0 0
SMALL
GASTEIGER

@<TRIPOS>ATOM
      1 H           6.3013   12.7660    0.1994 H       1  UNL1        0.0521
      2 H           4.2860   13.8041   -0.3260 H       1  UNL1        0.2090
      3 H           5.0903   11.4825   -0.1204 H       1  UNL1        0.0521
      4 H           5.4745   11.9587    1.5572 H       1  UNL1        0.0521
      5 C           5.3434   12.3340    0.5333 C.3     1  UNL1        0.0330
      6 O           4.2929   13.2992    0.5472 O.3     1  UNL1       -0.3982
@<TRIPOS>BOND
     1     2     6    1
     2     3     5    1
     3     1     5    1
     4     5     6    1
     5     5     4    1
