@<TRIPOS>MOLECULE
structure_147.xyz
 6 5 0 0 0
SMALL
GASTEIGER

@<TRIPOS>ATOM
      1 H           8.0583    0.0179   -0.6341 H       1  UNL1        0.0521
      2 H           5.8866    0.9367   -0.1485 H       1  UNL1        0.2090
      3 H           8.5648    0.8304    0.8771 H       1  UNL1        0.0521
      4 H           8.0302    1.8094   -0.5125 H       1  UNL1        0.0521
      5 C           7.8608    0.8697    0.0355 C.3     1  UNL1        0.0330
      6 O           6.5422    0.8094    0.5823 O.3     1  UNL1       -0.3982
@<TRIPOS>BOND
     1     1     5    1
     2     4     5    1
     3     2     6    1
     4     5     6    1
     5     5     3    1
