@<TRIPOS>MOLECULE
structure_1445.xyz
 6 5 0 0 0
SMALL
GASTEIGER

@<TRIPOS>ATOM
      1 H           1.9852    5.2644    0.5819 H       1  UNL1        0.0521
      2 H           2.0458    3.4885    0.6809 H       1  UNL1        0.0521
      3 H           2.7569    4.4729    1.9920 H       1  UNL1        0.0521
      4 H           4.3460    5.2184    0.3872 H       1  UNL1        0.2090
      5 C           2.5989    4.4095    0.9032 C.3     1  UNL1        0.0330
      6 O           3.8429    4.3660    0.1830 O.3     1  UNL1       -0.3982
@<TRIPOS>BOND
     1     6     4    1
     2     6     5    1
     3     1     5    1
     4     2     5    1
     5     5     3    1
