@<TRIPOS>MOLECULE
structure_2034.xyz
 6 5 0 0 0
SMALL
GASTEIGER

@<TRIPOS>ATOM
      1 H          13.5119    1.8011    0.9046 H       1  UNL1        0.2090
      2 H          12.6142    3.8330    1.3334 H       1  UNL1        0.0521
      3 H          13.3297    3.9958   -0.2930 H       1  UNL1        0.0521
      4 H          11.5777    3.6730   -0.1080 H       1  UNL1        0.0521
      5 C          12.5727    3.4597    0.3000 C.3     1  UNL1        0.0330
      6 O          12.7818    2.0345    0.2527 O.3     1  UNL1       -0.3982
@<TRIPOS>BOND
     1     3     5    1
     2     4     5    1
     3     6     5    1
     4     6     1    1
     5     5     2    1
