@<TRIPOS>MOLECULE
structure_65.xyz
 6 5 0 0 0
SMALL
GASTEIGER

@<TRIPOS>ATOM
      1 H           6.4725    1.7791    1.9900 H       1  UNL1        0.0521
      2 H           4.8015    0.1401    1.4753 H       1  UNL1        0.2090
      3 H           4.9882    2.4910    1.2767 H       1  UNL1        0.0521
      4 H           5.2397    2.5260    3.0447 H       1  UNL1        0.0521
      5 C           5.3877    1.9251    2.1369 C.3     1  UNL1        0.0330
      6 O           4.6961    0.6956    2.3061 O.3     1  UNL1       -0.3982
@<TRIPOS>BOND
     1     3     5    1
     2     2     6    1
     3     1     5    1
     4     5     6    1
     5     5     4    1
