@<TRIPOS>MOLECULE
structure_1978.xyz
 6 5 0 0 0
SMALL
GASTEIGER

@<TRIPOS>ATOM
      1 H          14.1270    1.8895    4.5696 H       1  UNL1        0.0521
      2 H          12.9511    1.6803    5.8953 H       1  UNL1        0.0521
      3 H          12.8663    3.1349    4.8560 H       1  UNL1        0.0521
      4 H          11.9821    1.8793    3.1931 H       1  UNL1        0.2090
      5 C          13.0796    2.0543    4.8698 C.3     1  UNL1        0.0330
      6 O          12.1873    1.3307    4.0181 O.3     1  UNL1       -0.3982
@<TRIPOS>BOND
     1     4     6    1
     2     6     5    1
     3     1     5    1
     4     3     5    1
     5     5     2    1
