@<TRIPOS>MOLECULE
structure_618.xyz
 6 5 0 0 0
SMALL
GASTEIGER

@<TRIPOS>ATOM
      1 H           4.1790    8.0542    2.7982 H       1  UNL1        0.0521
      2 H           3.3022    9.3312    1.2602 H       1  UNL1        0.2090
      3 H           2.5591    7.7409    3.4767 H       1  UNL1        0.0521
      4 H           3.1193    6.8146    2.0519 H       1  UNL1        0.0521
      5 C           3.1393    7.7995    2.5450 C.3     1  UNL1        0.0330
      6 O           2.5576    8.7980    1.6931 O.3     1  UNL1       -0.3982
@<TRIPOS>BOND
     1     2     6    1
     2     6     5    1
     3     4     5    1
     4     5     1    1
     5     5     3    1
