@<TRIPOS>MOLECULE
structure_2176.xyz
 6 5 0 0 0
SMALL
GASTEIGER

@<TRIPOS>ATOM
      1 H           2.5433    1.9678    3.4035 H       1  UNL1        0.0521
      2 H           1.5164    1.5026    2.0091 H       1  UNL1        0.0521
      3 H           0.8973    2.6591    3.2153 H       1  UNL1        0.0521
      4 H           0.7731    0.9247    4.7343 H       1  UNL1        0.2090
      5 C           1.5120    1.7545    3.0770 C.3     1  UNL1        0.0330
      6 O           0.9503    0.6457    3.7850 O.3     1  UNL1       -0.3982
@<TRIPOS>BOND
     1     2     5    1
     2     5     3    1
     3     5     1    1
     4     5     6    1
     5     6     4    1
