@<TRIPOS>MOLECULE
structure_1693.xyz
 6 5 0 0 0
SMALL
GASTEIGER

@<TRIPOS>ATOM
      1 H          21.3370    0.7765    1.1368 H       1  UNL1        0.0521
      2 H          20.5503    2.0887    0.2023 H       1  UNL1        0.0521
      3 H          20.5260    2.1398    1.9841 H       1  UNL1        0.0521
      4 H          19.1354    0.2503    1.9278 H       1  UNL1        0.2090
      5 C          20.4827    1.4732    1.1087 C.3     1  UNL1        0.0330
      6 O          19.2334    0.7702    1.0656 O.3     1  UNL1       -0.3982
@<TRIPOS>BOND
     1     2     5    1
     2     6     5    1
     3     6     4    1
     4     5     1    1
     5     5     3    1
