@<TRIPOS>MOLECULE
structure_154.xyz
 6 5 0 0 0
SMALL
GASTEIGER

@<TRIPOS>ATOM
      1 H          -0.6621    8.1572    4.0141 H       1  UNL1        0.0521
      2 H           0.5069    8.2044    2.6583 H       1  UNL1        0.0521
      3 H          -0.8735    9.3375    2.6922 H       1  UNL1        0.0521
      4 H           1.1957   10.3189    3.4865 H       1  UNL1        0.2090
      5 C          -0.1320    8.8157    3.3145 C.3     1  UNL1        0.0330
      6 O           0.6407    9.7372    4.0950 O.3     1  UNL1       -0.3982
@<TRIPOS>BOND
     1     2     5    1
     2     3     5    1
     3     5     1    1
     4     5     6    1
     5     4     6    1
