@<TRIPOS>MOLECULE
structure_2039.xyz
 6 5 0 0 0
SMALL
GASTEIGER

@<TRIPOS>ATOM
      1 H          -1.1838    7.3685    5.3531 H       1  UNL1        0.0521
      2 H          -0.7703    8.7647    6.3889 H       1  UNL1        0.0521
      3 H          -0.2416    9.9588    4.5603 H       1  UNL1        0.2090
      4 H          -2.2621    8.7928    5.4030 H       1  UNL1        0.0521
      5 C          -1.2102    8.4628    5.4275 C.3     1  UNL1        0.0330
      6 O          -0.4588    9.0025    4.3291 O.3     1  UNL1       -0.3982
@<TRIPOS>BOND
     1     6     3    1
     2     6     5    1
     3     1     5    1
     4     4     5    1
     5     5     2    1
