@<TRIPOS>MOLECULE
structure_1606.xyz
 6 5 0 0 0
SMALL
GASTEIGER

@<TRIPOS>ATOM
      1 H           4.7670    6.5653    1.0871 H       1  UNL1        0.2090
      2 H           2.7678    5.3126    0.1420 H       1  UNL1        0.0521
      3 H           3.0005    5.5351    1.8994 H       1  UNL1        0.0521
      4 H           3.5033    4.0114    1.1208 H       1  UNL1        0.0521
      5 C           3.4380    5.0994    0.9892 C.3     1  UNL1        0.0330
      6 O           4.7621    5.6100    0.7663 O.3     1  UNL1       -0.3982
@<TRIPOS>BOND
     1     2     5    1
     2     6     5    1
     3     6     1    1
     4     5     4    1
     5     5     3    1
