@<TRIPOS>MOLECULE
structure_1548.xyz
 6 5 0 0 0
SMALL
GASTEIGER

@<TRIPOS>ATOM
      1 H           0.0171    7.1508    1.5517 H       1  UNL1        0.2090
      2 H           1.7034    7.4548    0.1296 H       1  UNL1        0.0521
      3 H           1.9006    8.8308    1.2525 H       1  UNL1        0.0521
      4 H           2.8742    7.3395    1.4654 H       1  UNL1        0.0521
      5 C           1.8888    7.7307    1.1802 C.3     1  UNL1        0.0330
      6 O           0.8955    7.1667    2.0436 O.3     1  UNL1       -0.3982
@<TRIPOS>BOND
     1     2     5    1
     2     5     3    1
     3     5     4    1
     4     5     6    1
     5     1     6    1
