@<TRIPOS>MOLECULE
structure_59.xyz
 6 5 0 0 0
SMALL
GASTEIGER

@<TRIPOS>ATOM
      1 H           3.8190   13.1846   -0.8970 H       1  UNL1        0.0521
      2 H           3.8190   13.1846    0.8970 H       1  UNL1        0.0521
      3 H           2.2786   13.2347    0.0000 H       1  UNL1        0.0521
      4 H           4.0908   10.9768    0.0000 H       1  UNL1        0.2090
      5 C           3.2920   12.8115    0.0000 C.3     1  UNL1        0.0330
      6 O           3.1787   11.4021    0.0000 O.3     1  UNL1       -0.3982
@<TRIPOS>BOND
     1     1     5    1
     2     3     5    1
     3     4     6    1
     4     5     6    1
     5     5     2    1
