@<TRIPOS>MOLECULE
structure_973.xyz
 6 5 0 0 0
SMALL
GASTEIGER

@<TRIPOS>ATOM
      1 H           0.8464    1.4170    1.0995 H       1  UNL1        0.0521
      2 H           2.2080    2.4131    0.5154 H       1  UNL1        0.0521
      3 H           2.5176    0.8478    1.3404 H       1  UNL1        0.0521
      4 H           2.7887    2.7335    2.8028 H       1  UNL1        0.2090
      5 C           1.8716    1.7415    1.3239 C.3     1  UNL1        0.0330
      6 O           1.8552    2.4152    2.5794 O.3     1  UNL1       -0.3982
@<TRIPOS>BOND
     1     2     5    1
     2     1     5    1
     3     5     3    1
     4     5     6    1
     5     6     4    1
