@<TRIPOS>MOLECULE
structure_938.xyz
 6 5 0 0 0
SMALL
GASTEIGER

@<TRIPOS>ATOM
      1 H           0.5237    4.8604    3.3455 H       1  UNL1        0.0521
      2 H           1.3607    5.1701    1.8080 H       1  UNL1        0.0521
      3 H           1.7187    2.9253    1.6199 H       1  UNL1        0.2090
      4 H           2.3024    4.6717    3.2425 H       1  UNL1        0.0521
      5 C           1.3489    4.5286    2.7030 C.3     1  UNL1        0.0330
      6 O           1.1215    3.1549    2.3703 O.3     1  UNL1       -0.3982
@<TRIPOS>BOND
     1     3     6    1
     2     2     5    1
     3     6     5    1
     4     5     4    1
     5     5     1    1
