@<TRIPOS>MOLECULE
structure_292.xyz
 6 5 0 0 0
SMALL
GASTEIGER

@<TRIPOS>ATOM
      1 H           6.6423    5.9565    2.3616 H       1  UNL1        0.0521
      2 H           8.0139    4.8345    2.5505 H       1  UNL1        0.0521
      3 H           6.6717    4.7965    3.7327 H       1  UNL1        0.0521
      4 H           7.3516    7.0556    4.2736 H       1  UNL1        0.2090
      5 C           7.2890    5.4515    3.0958 C.3     1  UNL1        0.0330
      6 O           8.0141    6.3931    3.8949 O.3     1  UNL1       -0.3982
@<TRIPOS>BOND
     1     1     5    1
     2     2     5    1
     3     5     3    1
     4     5     6    1
     5     6     4    1
