@<TRIPOS>MOLECULE
structure_107.xyz
 6 5 0 0 0
SMALL
GASTEIGER

@<TRIPOS>ATOM
      1 H           6.5401    8.1391    2.4608 H       1  UNL1        0.2090
      2 H           4.3924    6.8920    3.0656 H       1  UNL1        0.0521
      3 H           5.5461    7.3694    4.3488 H       1  UNL1        0.0521
      4 H           5.5879    5.7196    3.6924 H       1  UNL1        0.0521
      5 C           5.4254    6.7721    3.4311 C.3     1  UNL1        0.0330
      6 O           6.3707    7.1484    2.4220 O.3     1  UNL1       -0.3982
@<TRIPOS>BOND
     1     6     1    1
     2     6     5    1
     3     2     5    1
     4     5     4    1
     5     5     3    1
