@<TRIPOS>MOLECULE
structure_980.xyz
 6 5 0 0 0
SMALL
GASTEIGER

@<TRIPOS>ATOM
      1 H           0.8068    1.8308    1.6878 H       1  UNL1        0.0521
      2 H           1.9153    1.5799    3.0695 H       1  UNL1        0.0521
      3 H           1.6403    0.2573    1.9025 H       1  UNL1        0.0521
      4 H           2.6566    1.7640    0.2870 H       1  UNL1        0.2090
      5 C           1.7426    1.3476    2.0115 C.3     1  UNL1        0.0330
      6 O           2.8756    1.8313    1.2682 O.3     1  UNL1       -0.3982
@<TRIPOS>BOND
     1     4     6    1
     2     6     5    1
     3     1     5    1
     4     3     5    1
     5     5     2    1
