@<TRIPOS>MOLECULE
structure_213.xyz
 6 5 0 0 0
SMALL
GASTEIGER

@<TRIPOS>ATOM
      1 H           6.4178    3.3201    1.4688 H       1  UNL1        0.0521
      2 H           6.1956    0.9036    3.0463 H       1  UNL1        0.2090
      3 H           5.5982    1.8409    0.8741 H       1  UNL1        0.0521
      4 H           4.9652    2.7103    2.3084 H       1  UNL1        0.0521
      5 C           5.8804    2.4128    1.7718 C.3     1  UNL1        0.0330
      6 O           6.7390    1.6509    2.6352 O.3     1  UNL1       -0.3982
@<TRIPOS>BOND
     1     3     5    1
     2     1     5    1
     3     5     4    1
     4     5     6    1
     5     6     2    1
