@<TRIPOS>MOLECULE
structure_992.xyz
 6 5 0 0 0
SMALL
GASTEIGER

@<TRIPOS>ATOM
      1 H           0.7139    1.7033    0.0662 H       1  UNL1        0.0521
      2 H           1.3190    3.3346    2.3305 H       1  UNL1        0.2090
      3 H           1.9742    1.2598    1.2494 H       1  UNL1        0.0521
      4 H           2.1370    2.7571    0.2746 H       1  UNL1        0.0521
      5 C           1.4205    2.1046    0.8035 C.3     1  UNL1        0.0330
      6 O           0.6747    2.8279    1.7857 O.3     1  UNL1       -0.3982
@<TRIPOS>BOND
     1     1     5    1
     2     4     5    1
     3     5     3    1
     4     5     6    1
     5     6     2    1
