@<TRIPOS>MOLECULE
structure_978.xyz
 6 5 0 0 0
SMALL
GASTEIGER

@<TRIPOS>ATOM
      1 H           1.3345    5.1823    1.5250 H       1  UNL1        0.0521
      2 H           3.1710    3.0611    2.0176 H       1  UNL1        0.2090
      3 H           2.5200    5.0994    2.8394 H       1  UNL1        0.0521
      4 H           3.0637    5.3122    1.1328 H       1  UNL1        0.0521
      5 C           2.3325    4.8143    1.7923 C.3     1  UNL1        0.0330
      6 O           2.3375    3.3952    1.6121 O.3     1  UNL1       -0.3982
@<TRIPOS>BOND
     1     4     5    1
     2     1     5    1
     3     6     5    1
     4     6     2    1
     5     5     3    1
