@<TRIPOS>MOLECULE
structure_989.xyz
 6 5 0 0 0
SMALL
GASTEIGER

@<TRIPOS>ATOM
      1 H           0.0325    2.7100    3.6670 H       1  UNL1        0.0521
      2 H           1.2620    3.9870    3.3700 H       1  UNL1        0.0521
      3 H           1.5751    2.2808    1.8222 H       1  UNL1        0.2090
      4 H           1.5277    2.7688    4.6430 H       1  UNL1        0.0521
      5 C           1.1145    2.9283    3.6395 C.3     1  UNL1        0.0330
      6 O           1.8100    2.0481    2.7466 O.3     1  UNL1       -0.3982
@<TRIPOS>BOND
     1     3     6    1
     2     6     5    1
     3     2     5    1
     4     5     1    1
     5     5     4    1
