@<TRIPOS>MOLECULE
structure_6.xyz
 6 5 0 0 0
SMALL
GASTEIGER

@<TRIPOS>ATOM
      1 H          11.9798    5.9367    4.0794 H       1  UNL1        0.0521
      2 H          11.2049    4.8709    2.8644 H       1  UNL1        0.0521
      3 H          10.6090    4.8759    4.5479 H       1  UNL1        0.0521
      4 H           9.8151    7.0319    4.1841 H       1  UNL1        0.2090
      5 C          11.0229    5.5023    3.7430 C.3     1  UNL1        0.0330
      6 O          10.0868    6.5137    3.3595 O.3     1  UNL1       -0.3982
@<TRIPOS>BOND
     1     2     5    1
     2     6     5    1
     3     6     4    1
     4     5     1    1
     5     5     3    1
