@<TRIPOS>MOLECULE
structure_126.xyz
 6 5 0 0 0
SMALL
GASTEIGER

@<TRIPOS>ATOM
      1 H           2.3306    0.0003    2.9821 H       1  UNL1        0.0521
      2 H           4.0278    0.1164    1.2995 H       1  UNL1        0.2090
      3 H           1.8200    0.8829    1.5043 H       1  UNL1        0.0521
      4 H           2.3676    1.7892    2.9376 H       1  UNL1        0.0521
      5 C           2.5285    0.8783    2.3487 C.3     1  UNL1        0.0330
      6 O           3.8826    0.8957    1.8925 O.3     1  UNL1       -0.3982
@<TRIPOS>BOND
     1     2     6    1
     2     3     5    1
     3     6     5    1
     4     5     4    1
     5     5     1    1
