@<TRIPOS>MOLECULE
structure_1919.xyz
 6 5 0 0 0
SMALL
GASTEIGER

@<TRIPOS>ATOM
      1 H           0.6145   -1.1340    9.1556 H       1  UNL1        0.0521
      2 H           1.5239    0.7846    7.2206 H       1  UNL1        0.2090
      3 H           1.6113    0.2533    9.6863 H       1  UNL1        0.0521
      4 H           2.2601   -0.9197    8.4941 H       1  UNL1        0.0521
      5 C           1.3544   -0.3909    8.8282 C.3     1  UNL1        0.0330
      6 O           0.7755    0.3816    7.7694 O.3     1  UNL1       -0.3982
@<TRIPOS>BOND
     1     2     6    1
     2     6     5    1
     3     4     5    1
     4     5     1    1
     5     5     3    1
