@<TRIPOS>MOLECULE
structure_1558.xyz
 6 5 0 0 0
SMALL
GASTEIGER

@<TRIPOS>ATOM
      1 H           0.4907    6.6368    0.6597 H       1  UNL1        0.2090
      2 H           0.3403    8.3574    2.1649 H       1  UNL1        0.0521
      3 H           1.7603    8.6853    1.1236 H       1  UNL1        0.0521
      4 H           1.9784    7.9667    2.7434 H       1  UNL1        0.0521
      5 C           1.3303    7.9865    1.8586 C.3     1  UNL1        0.0330
      6 O           1.2529    6.6555    1.3255 O.3     1  UNL1       -0.3982
@<TRIPOS>BOND
     1     1     6    1
     2     3     5    1
     3     6     5    1
     4     5     2    1
     5     5     4    1
