@<TRIPOS>MOLECULE
structure_173.xyz
 6 5 0 0 0
SMALL
GASTEIGER

@<TRIPOS>ATOM
      1 H          -0.0545    3.9458   11.9570 H       1  UNL1        0.0521
      2 H           1.6959    5.2247   13.8073 H       1  UNL1        0.2090
      3 H           1.6391    3.5524   12.3660 H       1  UNL1        0.0521
      4 H           1.2737    4.9246   11.2650 H       1  UNL1        0.0521
      5 C           0.9371    4.3736   12.1601 C.3     1  UNL1        0.0330
      6 O           0.8315    5.2559   13.2842 O.3     1  UNL1       -0.3982
@<TRIPOS>BOND
     1     4     5    1
     2     1     5    1
     3     5     3    1
     4     5     6    1
     5     6     2    1
