@<TRIPOS>MOLECULE
structure_939.xyz
 6 5 0 0 0
SMALL
GASTEIGER

@<TRIPOS>ATOM
      1 H           1.3112    5.2077    3.2679 H       1  UNL1        0.0521
      2 H           3.0443    3.4635    1.8704 H       1  UNL1        0.2090
      3 H           3.0433    4.8869    3.5272 H       1  UNL1        0.0521
      4 H           2.5315    6.0251    2.2396 H       1  UNL1        0.0521
      5 C           2.2792    5.0878    2.7618 C.3     1  UNL1        0.0330
      6 O           2.1882    4.0025    1.8268 O.3     1  UNL1       -0.3982
@<TRIPOS>BOND
     1     6     2    1
     2     6     5    1
     3     4     5    1
     4     5     1    1
     5     5     3    1
