@<TRIPOS>MOLECULE
structure_103.xyz
 6 5 0 0 0
SMALL
GASTEIGER

@<TRIPOS>ATOM
      1 H           2.4291    7.5009    3.8737 H       1  UNL1        0.0521
      2 H           4.2145    7.5162    3.9271 H       1  UNL1        0.0521
      3 H           4.1632    9.0579    2.1684 H       1  UNL1        0.2090
      4 H           3.3641    6.8166    2.5056 H       1  UNL1        0.0521
      5 C           3.3376    7.6134    3.2687 C.3     1  UNL1        0.0330
      6 O           3.2989    8.9145    2.6734 O.3     1  UNL1       -0.3982
@<TRIPOS>BOND
     1     3     6    1
     2     4     5    1
     3     6     5    1
     4     5     1    1
     5     5     2    1
