@<TRIPOS>MOLECULE
structure_277.xyz
 6 5 0 0 0
SMALL
GASTEIGER

@<TRIPOS>ATOM
      1 H           6.4430    4.2938    3.3699 H       1  UNL1        0.2090
      2 H           8.7146    3.3134    3.5102 H       1  UNL1        0.0521
      3 H           8.2692    3.0016    5.2074 H       1  UNL1        0.0521
      4 H           7.3563    2.2201    3.8896 H       1  UNL1        0.0521
      5 C           7.8674    3.1441    4.1951 C.3     1  UNL1        0.0330
      6 O           6.9894    4.2750    4.2227 O.3     1  UNL1       -0.3982
@<TRIPOS>BOND
     1     1     6    1
     2     2     5    1
     3     4     5    1
     4     5     6    1
     5     5     3    1
