@<TRIPOS>MOLECULE
structure_137.xyz
 6 5 0 0 0
SMALL
GASTEIGER

@<TRIPOS>ATOM
      1 H           4.9267    6.2812    8.5246 H       1  UNL1        0.0521
      2 H           3.6308    5.0503    8.5144 H       1  UNL1        0.0521
      3 H           6.2402    4.7210    7.3026 H       1  UNL1        0.2090
      4 H           5.1365    4.7486    9.4275 H       1  UNL1        0.0521
      5 C           4.7174    5.2011    8.5155 C.3     1  UNL1        0.0330
      6 O           5.2402    4.5912    7.3238 O.3     1  UNL1       -0.3982
@<TRIPOS>BOND
     1     3     6    1
     2     6     5    1
     3     2     5    1
     4     5     1    1
     5     5     4    1
