@<TRIPOS>MOLECULE
structure_294.xyz
 6 5 0 0 0
SMALL
GASTEIGER

@<TRIPOS>ATOM
      1 H           3.0257    0.4490    0.2740 H       1  UNL1        0.0521
      2 H           3.4612    1.6065   -1.0118 H       1  UNL1        0.0521
      3 H           2.9299    3.2287    0.9192 H       1  UNL1        0.2090
      4 H           1.8497    1.6839   -0.2527 H       1  UNL1        0.0521
      5 C           2.9138    1.4881   -0.0617 C.3     1  UNL1        0.0330
      6 O           3.4293    2.3556    0.9581 O.3     1  UNL1       -0.3982
@<TRIPOS>BOND
     1     2     5    1
     2     4     5    1
     3     5     1    1
     4     5     6    1
     5     3     6    1
