@<TRIPOS>MOLECULE
structure_2061.xyz
 6 5 0 0 0
SMALL
GASTEIGER

@<TRIPOS>ATOM
      1 H          -1.0021    3.2063    2.2070 H       1  UNL1        0.0521
      2 H          -1.0087    1.1330    4.2137 H       1  UNL1        0.2090
      3 H          -0.7397    3.5337    3.9377 H       1  UNL1        0.0521
      4 H           0.4303    2.5161    3.0402 H       1  UNL1        0.0521
      5 C          -0.6354    2.7708    3.1460 C.3     1  UNL1        0.0330
      6 O          -1.4238    1.6165    3.4401 O.3     1  UNL1       -0.3982
@<TRIPOS>BOND
     1     1     5    1
     2     4     5    1
     3     5     6    1
     4     5     3    1
     5     6     2    1
