@<TRIPOS>MOLECULE
structure_270.xyz
 6 5 0 0 0
SMALL
GASTEIGER

@<TRIPOS>ATOM
      1 H           2.3435    5.2828    4.8012 H       1  UNL1        0.0521
      2 H           4.1100    5.0590    4.6814 H       1  UNL1        0.0521
      3 H           3.0354    4.2430    3.5119 H       1  UNL1        0.0521
      4 H           3.6487    7.0681    3.6394 H       1  UNL1        0.2090
      5 C           3.1833    5.1609    4.0975 C.3     1  UNL1        0.0330
      6 O           3.2689    6.2528    3.1757 O.3     1  UNL1       -0.3982
@<TRIPOS>BOND
     1     6     4    1
     2     6     5    1
     3     3     5    1
     4     5     2    1
     5     5     1    1
