@<TRIPOS>MOLECULE
structure_1364.xyz
 6 5 0 0 0
SMALL
GASTEIGER

@<TRIPOS>ATOM
      1 H          11.3747    3.7781    3.5497 H       1  UNL1        0.0521
      2 H           9.6122    2.3883    2.3918 H       1  UNL1        0.2090
      3 H          10.1024    4.5894    2.5848 H       1  UNL1        0.0521
      4 H           9.9373    4.4714    4.3488 H       1  UNL1        0.0521
      5 C          10.2906    3.9428    3.4534 C.3     1  UNL1        0.0330
      6 O           9.5853    2.6985    3.3515 O.3     1  UNL1       -0.3982
@<TRIPOS>BOND
     1     2     6    1
     2     3     5    1
     3     6     5    1
     4     5     1    1
     5     5     4    1
