@<TRIPOS>MOLECULE
structure_1857.xyz
 6 5 0 0 0
SMALL
GASTEIGER

@<TRIPOS>ATOM
      1 H          13.5048    5.8056    3.9582 H       1  UNL1        0.0521
      2 H          11.4342    6.8008    3.7812 H       1  UNL1        0.2090
      3 H          12.2798    4.5097    3.9420 H       1  UNL1        0.0521
      4 H          13.1742    4.9181    2.4478 H       1  UNL1        0.0521
      5 C          12.7144    5.3331    3.3535 C.3     1  UNL1        0.0330
      6 O          11.7109    6.2774    2.9618 O.3     1  UNL1       -0.3982
@<TRIPOS>BOND
     1     4     5    1
     2     6     5    1
     3     6     2    1
     4     5     3    1
     5     5     1    1
