@<TRIPOS>MOLECULE
structure_984.xyz
 6 5 0 0 0
SMALL
GASTEIGER

@<TRIPOS>ATOM
      1 H           0.7832    0.7369    0.4266 H       1  UNL1        0.0521
      2 H           1.0851   -0.8319    1.2372 H       1  UNL1        0.0521
      3 H           1.6044    0.3319    3.1270 H       1  UNL1        0.2090
      4 H           2.4468    0.2663    0.8644 H       1  UNL1        0.0521
      5 C           1.3911    0.2265    1.1859 C.3     1  UNL1        0.0330
      6 O           1.1885    0.8964    2.4321 O.3     1  UNL1       -0.3982
@<TRIPOS>BOND
     1     1     5    1
     2     4     5    1
     3     5     2    1
     4     5     6    1
     5     6     3    1
