@<TRIPOS>MOLECULE
structure_146.xyz
 6 5 0 0 0
SMALL
GASTEIGER

@<TRIPOS>ATOM
      1 H           6.5266   11.0376    1.1175 H       1  UNL1        0.2090
      2 H           6.2739    8.7343    2.8386 H       1  UNL1        0.0521
      3 H           6.1250    8.7152    1.0599 H       1  UNL1        0.0521
      4 H           7.7011    9.0939    1.8241 H       1  UNL1        0.0521
      5 C           6.6083    9.2229    1.9126 C.3     1  UNL1        0.0330
      6 O           6.2325   10.5914    1.9762 O.3     1  UNL1       -0.3982
@<TRIPOS>BOND
     1     3     5    1
     2     1     6    1
     3     4     5    1
     4     5     6    1
     5     5     2    1
