@<TRIPOS>MOLECULE
structure_133.xyz
 6 5 0 0 0
SMALL
GASTEIGER

@<TRIPOS>ATOM
      1 H           6.6694    4.1212    0.8213 H       1  UNL1        0.2090
      2 H           8.9966    3.2066    0.7267 H       1  UNL1        0.0521
      3 H           7.6220    2.0609    0.6989 H       1  UNL1        0.0521
      4 H           8.4225    2.5238   -0.8202 H       1  UNL1        0.0521
      5 C           8.1029    2.8943    0.1615 C.3     1  UNL1        0.0330
      6 O           7.2048    3.9909   -0.0283 O.3     1  UNL1       -0.3982
@<TRIPOS>BOND
     1     4     5    1
     2     6     5    1
     3     6     1    1
     4     5     3    1
     5     5     2    1
