@<TRIPOS>MOLECULE
structure_73.xyz
 6 5 0 0 0
SMALL
GASTEIGER

@<TRIPOS>ATOM
      1 H           6.0218   12.9327    3.8648 H       1  UNL1        0.0521
      2 H           4.1022   14.2321    3.3592 H       1  UNL1        0.2090
      3 H           5.6946   12.0406    2.3543 H       1  UNL1        0.0521
      4 H           4.5511   11.9203    3.7208 H       1  UNL1        0.0521
      5 C           5.2262   12.6011    3.1744 C.3     1  UNL1        0.0330
      6 O           4.5085   13.6919    2.6120 O.3     1  UNL1       -0.3982
@<TRIPOS>BOND
     1     3     5    1
     2     6     5    1
     3     6     2    1
     4     5     4    1
     5     5     1    1
