@<TRIPOS>MOLECULE
structure_430.xyz
 6 5 0 0 0
SMALL
GASTEIGER

@<TRIPOS>ATOM
      1 H           5.6864    2.3247    2.6524 H       1  UNL1        0.0521
      2 H           4.7882    0.1221    2.8568 H       1  UNL1        0.2090
      3 H           4.7807    2.4313    1.1199 H       1  UNL1        0.0521
      4 H           3.8929    2.3208    2.6625 H       1  UNL1        0.0521
      5 C           4.7873    1.9701    2.1166 C.3     1  UNL1        0.0330
      6 O           4.7889    0.5650    1.9547 O.3     1  UNL1       -0.3982
@<TRIPOS>BOND
     1     3     5    1
     2     6     5    1
     3     6     2    1
     4     5     1    1
     5     5     4    1
