@<TRIPOS>MOLECULE
structure_983.xyz
 6 5 0 0 0
SMALL
GASTEIGER

@<TRIPOS>ATOM
      1 H          -1.8569    2.5891    4.8683 H       1  UNL1        0.0521
      2 H          -1.3510    3.8006    6.0747 H       1  UNL1        0.0521
      3 H           0.1934    4.5841    4.6039 H       1  UNL1        0.2090
      4 H          -0.2877    2.3978    5.6968 H       1  UNL1        0.0521
      5 C          -0.9951    3.1312    5.2753 C.3     1  UNL1        0.0330
      6 O          -0.3874    3.8669    4.2107 O.3     1  UNL1       -0.3982
@<TRIPOS>BOND
     1     6     3    1
     2     6     5    1
     3     1     5    1
     4     5     4    1
     5     5     2    1
