@<TRIPOS>MOLECULE
structure_1621.xyz
 6 5 0 0 0
SMALL
GASTEIGER

@<TRIPOS>ATOM
      1 H           5.1530    7.9831    5.0782 H       1  UNL1        0.0521
      2 H           3.9500    8.4165    2.4714 H       1  UNL1        0.2090
      3 H           3.4468    8.4591    4.8381 H       1  UNL1        0.0521
      4 H           4.0269    6.8615    4.2692 H       1  UNL1        0.0521
      5 C           4.2988    7.9206    4.3922 C.3     1  UNL1        0.0330
      6 O           4.7047    8.4988    3.1418 O.3     1  UNL1       -0.3982
@<TRIPOS>BOND
     1     2     6    1
     2     6     5    1
     3     4     5    1
     4     5     3    1
     5     5     1    1
