@<TRIPOS>MOLECULE
structure_966.xyz
 6 5 0 0 0
SMALL
GASTEIGER

@<TRIPOS>ATOM
      1 H           0.3707    0.2015    1.4080 H       1  UNL1        0.2090
      2 H           1.8807    1.4178    2.8532 H       1  UNL1        0.0521
      3 H           1.8735    2.6714    1.5796 H       1  UNL1        0.0521
      4 H           2.5667    1.0625    1.2328 H       1  UNL1        0.0521
      5 C           1.7688    1.5966    1.7732 C.3     1  UNL1        0.0330
      6 O           0.4618    1.2019    1.3266 O.3     1  UNL1       -0.3982
@<TRIPOS>BOND
     1     4     5    1
     2     6     1    1
     3     6     5    1
     4     3     5    1
     5     5     2    1
