@<TRIPOS>MOLECULE
structure_298.xyz
 6 5 0 0 0
SMALL
GASTEIGER

@<TRIPOS>ATOM
      1 H           6.7588   12.2451   -0.3473 H       1  UNL1        0.2090
      2 H           4.5042   13.0306   -0.3829 H       1  UNL1        0.0521
      3 H           4.6818   13.2973    1.3747 H       1  UNL1        0.0521
      4 H           5.6600   14.2633    0.2262 H       1  UNL1        0.0521
      5 C           5.2207   13.2666    0.4190 C.3     1  UNL1        0.0330
      6 O           6.2186   12.2524    0.5133 O.3     1  UNL1       -0.3982
@<TRIPOS>BOND
     1     2     5    1
     2     1     6    1
     3     4     5    1
     4     5     6    1
     5     5     3    1
