@<TRIPOS>MOLECULE
structure_186.xyz
 6 5 0 0 0
SMALL
GASTEIGER

@<TRIPOS>ATOM
      1 H           3.5562    1.2413   23.7603 H       1  UNL1        0.0521
      2 H           3.8047    1.6585   21.4854 H       1  UNL1        0.2090
      3 H           2.0153    0.8943   22.9257 H       1  UNL1        0.0521
      4 H           2.2466    2.4573   23.7523 H       1  UNL1        0.0521
      5 C           2.7467    1.6828   23.1572 C.3     1  UNL1        0.0330
      6 O           3.2494    2.3088   21.9790 O.3     1  UNL1       -0.3982
@<TRIPOS>BOND
     1     2     6    1
     2     6     5    1
     3     3     5    1
     4     5     4    1
     5     5     1    1
