@<TRIPOS>MOLECULE
structure_964.xyz
 6 5 0 0 0
SMALL
GASTEIGER

@<TRIPOS>ATOM
      1 H           0.0787    3.7814    1.2870 H       1  UNL1        0.2090
      2 H           1.9109    5.1590    1.1352 H       1  UNL1        0.0521
      3 H           1.9239    4.4828    2.7938 H       1  UNL1        0.0521
      4 H           2.9602    3.7690    1.5233 H       1  UNL1        0.0521
      5 C           1.9847    4.2307    1.7229 C.3     1  UNL1        0.0330
      6 O           0.9618    3.2918    1.3568 O.3     1  UNL1       -0.3982
@<TRIPOS>BOND
     1     2     5    1
     2     1     6    1
     3     6     5    1
     4     4     5    1
     5     5     3    1
