@<TRIPOS>MOLECULE
structure_960.xyz
 6 5 0 0 0
SMALL
GASTEIGER

@<TRIPOS>ATOM
      1 H           1.1066    2.3134    7.4835 H       1  UNL1        0.2090
      2 H           1.8229    3.7074    5.7816 H       1  UNL1        0.0521
      3 H           2.5297    2.2828    4.9656 H       1  UNL1        0.0521
      4 H           3.2838    2.9142    6.4571 H       1  UNL1        0.0521
      5 C           2.3256    2.7417    5.9426 C.3     1  UNL1        0.0330
      6 O           1.4970    1.8332    6.6832 O.3     1  UNL1       -0.3982
@<TRIPOS>BOND
     1     3     5    1
     2     2     5    1
     3     5     4    1
     4     5     6    1
     5     6     1    1
