@<TRIPOS>MOLECULE
structure_995.xyz
 6 5 0 0 0
SMALL
GASTEIGER

@<TRIPOS>ATOM
      1 H           0.1342    0.2959    4.3500 H       1  UNL1        0.0521
      2 H           0.6501    0.5575    2.0590 H       1  UNL1        0.2090
      3 H           1.3294    1.5985    4.6350 H       1  UNL1        0.0521
      4 H           1.8830    0.0176    4.0214 H       1  UNL1        0.0521
      5 C           1.0642    0.7583    3.9782 C.3     1  UNL1        0.0330
      6 O           0.8996    1.2932    2.6630 O.3     1  UNL1       -0.3982
@<TRIPOS>BOND
     1     2     6    1
     2     6     5    1
     3     5     4    1
     4     5     1    1
     5     5     3    1
